@<TRIPOS>MOLECULE
3R136
137   139    1
SMALL
USER_CHARGES


@<TRIPOS>ATOM
      1 CA         31.9242   23.6709   -1.6244 C.3       0 UNK        -0.1979 
      2 C          31.1846   23.5749   -0.2994 C.2       0 UNK         0.4864 
      3 O          31.0282   24.5832    0.3874 O.2       0 UNK        -0.5359 
      4 N          30.7081   22.3726    0.0515 N.am      1 UNK        -0.4318 
      5 CA         29.9980   22.0808    1.3055 C.3       1 UNK         0.0824 
      6 C6         30.2821   20.6445    1.8248 C.3       12 UNK        -0.0944 
      7 S7         32.0563   20.2823    2.0610 S.3       12 UNK        -0.2672 
      8 C8         32.2789   20.5978    3.8432 C.3       12 UNK         0.0333 
      9 C9         32.3882   22.0874    4.1303 C.ar      12 UNK        -0.0807 
     10 C10        33.6126   22.7402    3.9675 C.ar      12 UNK        -0.0894 
     11 C11        33.7195   24.1179    4.1789 C.ar      12 UNK        -0.0804 
     12 C12        32.5846   24.8484    4.5449 C.ar      12 UNK        -0.0824 
     13 C13        31.3561   24.2019    4.7256 C.ar      12 UNK        -0.0762 
     14 C14        31.2696   22.8185    4.5392 C.ar      12 UNK        -0.0782 
     15 C15        30.1154   24.9949    5.1052 C.3       12 UNK         0.0230 
     16 S16        28.9463   25.0705    3.7129 S.3       12 UNK        -0.2608 
     17 C17        27.8568   26.4293    4.2444 C.3       12 UNK        -0.0989 
     18 CA         28.3524   27.7846    3.6912 C.3       5 UNK         0.0716 
     19 N          28.4419   27.8026    2.2300 N.am      5 UNK        -0.4135 
     20 C          29.0363   28.7639    1.5121 C.2       4 UNK         0.5031 
     21 O          29.6511   29.7044    2.0156 O.2       4 UNK        -0.5229 
     22 CA         28.9099   28.6803   -0.0195 C.3       4 UNK         0.0329 
     23 CB         30.1905   28.0989   -0.6326 C.3       4 UNK        -0.2001 
     24 N          27.7665   27.8888   -0.4795 N.am      4 UNK        -0.4303 
     25 C          26.4755   28.1691   -0.2669 C.2       3 UNK         0.5044 
     26 O          26.0895   29.1516    0.3660 O.2       3 UNK        -0.5152 
     27 CA         25.4447   27.1573   -0.8008 C.3       3 UNK         0.0319 
     28 CB         25.3146   27.2459   -2.3341 C.3       3 UNK        -0.2001 
     29 N          25.6693   25.7723   -0.3513 N.am      3 UNK        -0.4354 
     30 C          26.6951   24.9544   -0.6312 C.2       2 UNK         0.4964 
     31 O          27.6427   25.2496   -1.3652 O.2       2 UNK        -0.5047 
     32 CA         26.6608   23.5713    0.0239 C.3       2 UNK         0.0288 
     33 CB         25.9048   22.5591   -0.8542 C.3       2 UNK        -0.2113 
     34 N          28.0376   23.1299    0.2181 N.am      2 UNK        -0.4145 
     35 C          28.4774   22.3598    1.2196 C.2       1 UNK         0.5006 
     36 O          27.7234   21.8686    2.0625 O.2       1 UNK        -0.5103 
     37 C          27.5035   28.9546    4.2235 C.2       5 UNK         0.5055 
     38 O          27.9114   29.6078    5.1857 O.2       5 UNK        -0.5220 
     39 N          26.3711   29.2288    3.5561 N.am      6 UNK        -0.4450 
     40 CA         25.4735   30.3452    3.8645 C.3       6 UNK         0.0367 
     41 CB         24.1401   30.1579    3.1237 C.3       6 UNK        -0.1929 
     42 C          26.0906   31.7140    3.5338 C.2       6 UNK         0.5070 
     43 O          25.7654   32.6980    4.1976 O.2       6 UNK        -0.5237 
     44 N          27.0152   31.7536    2.5644 N.am      7 UNK        -0.4739 
     45 CA         27.8138   32.9250    2.1882 C.3       7 UNK         0.0276 
     46 CB         28.2865   32.7571    0.7317 C.3       7 UNK        -0.1927 
     47 C          28.9852   33.1803    3.1635 C.2       7 UNK         0.5013 
     48 O          30.0973   33.4702    2.7213 O.2       7 UNK        -0.5193 
     49 N          28.7096   33.0685    4.4717 N.am      8 UNK        -0.4253 
     50 CA         29.6212   33.2466    5.6073 C.3       8 UNK         0.0242 
     51 CB         30.0141   34.7328    5.7530 C.3       8 UNK        -0.2000 
     52 C          30.8396   32.3017    5.5669 C.2       8 UNK         0.4948 
     53 O          31.9645   32.7490    5.7998 O.2       8 UNK        -0.5275 
     54 N          30.5858   31.0126    5.2856 N.am      9 UNK        -0.4246 
     55 CA         31.5682   29.9233    5.1941 C.3       9 UNK         0.0261 
     56 CB         32.1414   29.5856    6.5871 C.3       9 UNK        -0.1959 
     57 C          32.6588   30.1820    4.1364 C.2       9 UNK         0.5033 
     58 O          33.8503   30.1087    4.4452 O.2       9 UNK        -0.5390 
     59 N          32.2300   30.4809    2.9021 N.am      10 UNK        -0.4215 
     60 CA         33.1137   30.7622    1.7672 C.3       10 UNK         0.0240 
     61 CB         32.3156   31.4497    0.6467 C.3       10 UNK        -0.1982 
     62 C          33.8566   29.5204    1.2408 C.2       10 UNK         0.4970 
     63 O          34.9400   29.6769    0.6771 O.2       10 UNK        -0.4916 
     64 N          33.2809   28.3237    1.4406 N.am      11 UNK        -0.4279 
     65 CA         33.8767   27.0128    1.1141 C.3       11 UNK         0.1003 
     66 C          34.0634   26.7269   -0.4127 C.2       11 UNK         0.5709 
     67 N          33.4959   27.5196   -1.3141 N.am      11 UNK        -0.7358 
     68 O          34.7166   25.7614   -0.7989 O.2       11 UNK        -0.4999 
     69 C69        35.1658   26.7623    1.9539 C.3       12 UNK        -0.0954 
     70 S70        35.5287   25.0023    2.2762 S.3       12 UNK        -0.2268 
     71 C71        35.0714   24.7980    4.0269 C.3       12 UNK         0.0203 
     72 H72        31.7268   22.8101   -2.2630 H         1 UNK         0.0888 
     73 H73        31.6193   24.5685   -2.1622 H         1 UNK         0.0888 
     74 H74        32.9978   23.7273   -1.4485 H         1 UNK         0.0888 
     75 H75        30.8625   21.5792   -0.5545 H         1 UNK         0.3017 
     76 H76        30.3672   22.7768    2.0579 H         1 UNK         0.0873 
     77 H77        29.7684   20.4642    2.7708 H         1 UNK         0.0745 
     78 H78        29.8825   19.9079    1.1255 H         1 UNK         0.0745 
     79 H79        31.4629   20.1484    4.4111 H         1 UNK         0.0705 
     80 H80        33.1892   20.0964    4.1756 H         1 UNK         0.0705 
     81 H81        34.4838   22.1769    3.6611 H         1 UNK         0.1334 
     82 H82        32.6601   25.9170    4.6925 H         1 UNK         0.1417 
     83 H83        30.3177   22.3210    4.6681 H         1 UNK         0.1562 
     84 H84        30.3893   26.0068    5.4080 H         1 UNK         0.0748 
     85 H85        29.6285   24.5328    5.9652 H         1 UNK         0.0748 
     86 H86        27.8084   26.4451    5.3354 H         1 UNK         0.0940 
     87 H87        26.8441   26.2136    3.8981 H         1 UNK         0.0940 
     88 H88        29.3631   27.9298    4.0666 H         1 UNK         0.0703 
     89 H89        28.0116   27.0330    1.7406 H         1 UNK         0.3081 
     90 H90        28.7791   29.6980   -0.3918 H         1 UNK         0.0719 
     91 H91        30.3660   27.0738   -0.3047 H         1 UNK         0.0809 
     92 H92        30.1461   28.0984   -1.7219 H         1 UNK         0.0809 
     93 H93        31.0598   28.6867   -0.3463 H         1 UNK         0.0809 
     94 H94        27.9711   27.0216   -0.9724 H         1 UNK         0.2990 
     95 H95        24.4809   27.4490   -0.3801 H         1 UNK         0.0690 
     96 H96        24.5264   26.5890   -2.7019 H         1 UNK         0.0788 
     97 H97        26.2395   26.9751   -2.8441 H         1 UNK         0.0788 
     98 H98        25.0608   28.2606   -2.6439 H         1 UNK         0.0788 
     99 H99        24.9533   25.4171    0.2682 H         1 UNK         0.2993 
    100 H100       26.1661   23.6583    0.9942 H         1 UNK         0.0949 
    101 H101       25.8717   21.5755   -0.3850 H         1 UNK         0.0767 
    102 H102       24.8736   22.8746   -1.0183 H         1 UNK         0.0767 
    103 H103       26.3734   22.4473   -1.8329 H         1 UNK         0.0767 
    104 H104       28.7101   23.5630   -0.4029 H         1 UNK         0.3013 
    105 H105       26.1447   28.6878    2.7328 H         1 UNK         0.3121 
    106 H106       25.2716   30.3275    4.9379 H         1 UNK         0.0774 
    107 H107       24.2700   30.1819    2.0413 H         1 UNK         0.0815 
    108 H108       23.4378   30.9514    3.3829 H         1 UNK         0.0815 
    109 H109       23.6681   29.2110    3.3858 H         1 UNK         0.0815 
    110 H110       27.2382   30.8900    2.0894 H         1 UNK         0.2987 
    111 H111       27.1726   33.8083    2.2283 H         1 UNK         0.0949 
    112 H112       29.0004   31.9395    0.6324 H         1 UNK         0.0806 
    113 H113       27.4510   32.5593    0.0601 H         1 UNK         0.0806 
    114 H114       28.7805   33.6619    0.3752 H         1 UNK         0.0806 
    115 H115       27.7487   32.8449    4.7085 H         1 UNK         0.3010 
    116 H116       29.0558   32.9685    6.4981 H         1 UNK         0.0829 
    117 H117       30.6180   35.0752    4.9119 H         1 UNK         0.0813 
    118 H118       29.1336   35.3721    5.8162 H         1 UNK         0.0813 
    119 H119       30.5973   34.8966    6.6601 H         1 UNK         0.0813 
    120 H120       29.6199   30.7411    5.1257 H         1 UNK         0.3038 
    121 H121       31.0297   29.0430    4.8538 H         1 UNK         0.0769 
    122 H122       32.7966   28.7148    6.5389 H         1 UNK         0.0811 
    123 H123       32.7270   30.4096    6.9960 H         1 UNK         0.0811 
    124 H124       31.3472   29.3537    7.2966 H         1 UNK         0.0811 
    125 H125       31.2296   30.4740    2.7095 H         1 UNK         0.3204 
    126 H126       33.8764   31.4660    2.1078 H         1 UNK         0.0748 
    127 H127       32.9440   31.6413   -0.2242 H         1 UNK         0.0771 
    128 H128       31.4693   30.8499    0.3163 H         1 UNK         0.0771 
    129 H129       31.9257   32.4119    0.9788 H         1 UNK         0.0771 
    130 H130       32.3794   28.2966    1.8920 H         1 UNK         0.2980 
    131 H131       33.1282   26.2895    1.4403 H         1 UNK         0.0545 
    132 H132       33.6246   27.3181   -2.2925 H         1 UNK         0.3459 
    133 H133       32.9821   28.3345   -1.0278 H         1 UNK         0.3459 
    134 H134       36.0330   27.2039    1.4599 H         1 UNK         0.0616 
    135 H135       35.0931   27.2767    2.9129 H         1 UNK         0.0616 
    136 H136       35.0892   25.7538    4.5517 H         1 UNK         0.0634 
    137 H137       35.8323   24.1823    4.5088 H         1 UNK         0.0634 
@<TRIPOS>BOND
     1    1    2 1    
     2    1   72 1    
     3    1   73 1    
     4    1   74 1    
     5    2    3 2    
     6    2    4 am   BACKBONE|DICT|INTERRES
     7    4    5 1    
     8    4   75 1    
     9    5    6 1    
    10    5   35 1    
    11    5   76 1    
    12    6    7 1    
    13    6   77 1    
    14    6   78 1    
    15    7    8 1    
    16    8    9 1    
    17    8   79 1    
    18    8   80 1    
    19    9   10 ar   
    20    9   14 ar   
    21   10   11 ar   
    22   10   81 1    
    23   11   12 ar   
    24   11   71 1    
    25   12   13 ar   
    26   12   82 1    
    27   13   14 ar   
    28   13   15 1    
    29   14   83 1    
    30   15   16 1    
    31   15   84 1    
    32   15   85 1    
    33   16   17 1    
    34   17   18 1    
    35   17   86 1    
    36   17   87 1    
    37   18   19 1    
    38   18   37 1    
    39   18   88 1    
    40   19   20 am   BACKBONE|DICT|INTERRES
    41   19   89 1    
    42   20   21 2    
    43   20   22 1    
    44   22   23 1    
    45   22   24 1    
    46   22   90 1    
    47   23   91 1    
    48   23   92 1    
    49   23   93 1    
    50   24   25 am   BACKBONE|DICT|INTERRES
    51   24   94 1    
    52   25   26 2    
    53   25   27 1    
    54   27   28 1    
    55   27   29 1    
    56   27   95 1    
    57   28   96 1    
    58   28   97 1    
    59   28   98 1    
    60   29   30 am   BACKBONE|DICT|INTERRES
    61   29   99 1    
    62   30   31 2    
    63   30   32 1    
    64   32   33 1    
    65   32   34 1    
    66   32  100 1    
    67   33  101 1    
    68   33  102 1    
    69   33  103 1    
    70   34   35 am   BACKBONE|DICT|INTERRES
    71   34  104 1    
    72   35   36 2    
    73   37   38 2    
    74   37   39 am   BACKBONE|DICT|INTERRES
    75   39   40 1    
    76   39  105 1    
    77   40   41 1    
    78   40   42 1    
    79   40  106 1    
    80   41  107 1    
    81   41  108 1    
    82   41  109 1    
    83   42   43 2    
    84   42   44 am   BACKBONE|DICT|INTERRES
    85   44   45 1    
    86   44  110 1    
    87   45   46 1    
    88   45   47 1    
    89   45  111 1    
    90   46  112 1    
    91   46  113 1    
    92   46  114 1    
    93   47   48 2    
    94   47   49 am   BACKBONE|DICT|INTERRES
    95   49   50 1    
    96   49  115 1    
    97   50   51 1    
    98   50   52 1    
    99   50  116 1    
   100   51  117 1    
   101   51  118 1    
   102   51  119 1    
   103   52   53 2    
   104   52   54 am   BACKBONE|DICT|INTERRES
   105   54   55 1    
   106   54  120 1    
   107   55   56 1    
   108   55   57 1    
   109   55  121 1    
   110   56  122 1    
   111   56  123 1    
   112   56  124 1    
   113   57   58 2    
   114   57   59 am   BACKBONE|DICT|INTERRES
   115   59   60 1    
   116   59  125 1    
   117   60   61 1    
   118   60   62 1    
   119   60  126 1    
   120   61  127 1    
   121   61  128 1    
   122   61  129 1    
   123   62   63 2    
   124   62   64 am   BACKBONE|DICT|INTERRES
   125   64   65 1    
   126   64  130 1    
   127   65   66 1    
   128   65   69 1    
   129   65  131 1    
   130   66   67 am   BACKBONE|DICT|INTERRES
   131   66   68 2    
   132   67  132 1    
   133   67  133 1    
   134   69   70 1    
   135   69  134 1    
   136   69  135 1    
   137   70   71 1    
   138   71  136 1    
   139   71  137 1    
@<TRIPOS>SUBSTRUCTURE
     1 UNK         1 GROUP             0       ****    0 ROOT    
