@<TRIPOS>MOLECULE
3R136
137   139    1
SMALL
USER_CHARGES


@<TRIPOS>ATOM
      1 CA         27.2990   21.8931   -4.0740 C.3       0 UNK        -0.1979 
      2 C          27.6344   22.9165   -3.0000 C.2       0 UNK         0.4864 
      3 O          26.7532   23.6629   -2.5710 O.2       0 UNK        -0.5359 
      4 N          28.8973   22.9450   -2.5469 N.am      1 UNK        -0.4318 
      5 CA         29.4226   23.8720   -1.5323 C.3       1 UNK         0.0824 
      6 C6         30.9536   23.7156   -1.3457 C.3       12 UNK        -0.0944 
      7 S7         31.4482   22.0833   -0.6786 S.3       12 UNK        -0.2672 
      8 C8         32.8185   22.5008    0.4514 C.3       12 UNK         0.0333 
      9 C9         32.4528   23.5335    1.5134 C.ar      12 UNK        -0.0807 
     10 C10        33.1878   24.7204    1.6046 C.ar      12 UNK        -0.0894 
     11 C11        32.8870   25.6699    2.5840 C.ar      12 UNK        -0.0804 
     12 C12        31.8353   25.4309    3.4703 C.ar      12 UNK        -0.0824 
     13 C13        31.0974   24.2482    3.4005 C.ar      12 UNK        -0.0762 
     14 C14        31.4094   23.3006    2.4181 C.ar      12 UNK        -0.0782 
     15 C15        29.9922   23.9851    4.4134 C.3       12 UNK         0.0230 
     16 S16        28.4160   24.7602    3.9365 S.3       12 UNK        -0.2608 
     17 C17        28.5878   26.4813    4.5167 C.3       12 UNK        -0.0989 
     18 CA         28.7337   27.5161    3.3705 C.3       5 UNK         0.0716 
     19 N          27.7116   27.3549    2.3214 N.am      5 UNK        -0.4135 
     20 C          27.5914   28.1181    1.2242 C.2       4 UNK         0.5031 
     21 O          28.2718   29.1250    1.0281 O.2       4 UNK        -0.5229 
     22 CA         26.5384   27.7342    0.1712 C.3       4 UNK         0.0329 
     23 CB         27.0938   27.8906   -1.2579 C.3       4 UNK        -0.2001 
     24 N          26.0344   26.3674    0.3263 N.am      4 UNK        -0.4303 
     25 C          24.7362   26.0288    0.3408 C.2       3 UNK         0.5044 
     26 O          23.8218   26.8533    0.3875 O.2       3 UNK        -0.5152 
     27 CA         24.3690   24.5340    0.2541 C.3       3 UNK         0.0319 
     28 CB         23.6051   24.2426   -1.0493 C.3       3 UNK        -0.2001 
     29 N          25.5380   23.6557    0.3129 N.am      3 UNK        -0.4354 
     30 C          26.0361   23.1339    1.4429 C.2       2 UNK         0.4964 
     31 O          25.5066   23.2739    2.5455 O.2       2 UNK        -0.5047 
     32 CA         27.3429   22.3217    1.3407 C.3       2 UNK         0.0288 
     33 CB         27.0409   20.8148    1.3717 C.3       2 UNK        -0.2113 
     34 N          28.1587   22.6148    0.1599 N.am      2 UNK        -0.4145 
     35 C          28.6650   23.8090   -0.1874 C.2       1 UNK         0.5006 
     36 O          28.4993   24.8408    0.4616 O.2       1 UNK        -0.5103 
     37 C          28.7921   28.9395    3.9687 C.2       5 UNK         0.5055 
     38 O          29.8839   29.4538    4.2118 O.2       5 UNK        -0.5220 
     39 N          27.6202   29.5556    4.1809 N.am      6 UNK        -0.4450 
     40 CA         27.4889   30.9175    4.7055 C.3       6 UNK         0.0367 
     41 CB         26.0496   31.1326    5.2008 C.3       6 UNK        -0.1929 
     42 C          27.8725   32.0062    3.6866 C.2       6 UNK         0.5070 
     43 O          28.3206   33.0777    4.0947 O.2       6 UNK        -0.5237 
     44 N          27.6855   31.7255    2.3898 N.am      7 UNK        -0.4739 
     45 CA         28.0215   32.6329    1.2901 C.3       7 UNK         0.0276 
     46 CB         27.1203   32.3264    0.0824 C.3       7 UNK        -0.1927 
     47 C          29.5034   32.5334    0.8977 C.2       7 UNK         0.5013 
     48 O          30.0967   33.5446    0.5212 O.2       7 UNK        -0.5193 
     49 N          30.0688   31.3215    0.9934 N.am      8 UNK        -0.4253 
     50 CA         31.4642   31.0046    0.6835 C.3       8 UNK         0.0242 
     51 CB         31.6536   29.4791    0.7374 C.3       8 UNK        -0.2000 
     52 C          32.4829   31.7026    1.6024 C.2       8 UNK         0.4948 
     53 O          33.5757   32.0277    1.1336 O.2       8 UNK        -0.5275 
     54 N          32.1011   31.9162    2.8732 N.am      9 UNK        -0.4246 
     55 CA         32.9089   32.4528    3.9797 C.3       9 UNK         0.0261 
     56 CB         33.4386   33.8676    3.6565 C.3       9 UNK        -0.1959 
     57 C          34.0305   31.4855    4.4104 C.2       9 UNK         0.5033 
     58 O          34.1521   30.3951    3.8466 O.2       9 UNK        -0.5390 
     59 N          34.7870   31.8640    5.4533 N.am      10 UNK        -0.4215 
     60 CA         35.8113   31.0633    6.1442 C.3       10 UNK         0.0240 
     61 CB         37.0305   30.7965    5.2318 C.3       10 UNK        -0.1982 
     62 C          35.2058   29.7828    6.7518 C.2       10 UNK         0.4970 
     63 O          34.7317   29.8224    7.8879 O.2       10 UNK        -0.4916 
     64 N          35.1870   28.6976    5.9692 N.am      11 UNK        -0.4279 
     65 CA         34.3700   27.4971    6.2006 C.3       11 UNK         0.1003 
     66 C          32.8349   27.7493    6.1389 C.2       11 UNK         0.5709 
     67 N          32.3746   28.7753    5.4364 N.am      11 UNK        -0.7358 
     68 O          32.0609   26.9987    6.7275 O.2       11 UNK        -0.4999 
     69 C69        34.7901   26.3148    5.2757 C.3       12 UNK        -0.0954 
     70 S70        35.2667   26.7593    3.5606 S.3       12 UNK        -0.2268 
     71 C71        33.6863   26.9604    2.6736 C.3       12 UNK         0.0203 
     72 H72        26.9669   22.3993   -4.9815 H         1 UNK         0.0888 
     73 H73        28.1579   21.2697   -4.3261 H         1 UNK         0.0888 
     74 H74        26.4937   21.2412   -3.7322 H         1 UNK         0.0888 
     75 H75        29.5723   22.2944   -2.9242 H         1 UNK         0.3017 
     76 H76        29.2483   24.8762   -1.9252 H         1 UNK         0.0873 
     77 H77        31.4595   23.8576   -2.3019 H         1 UNK         0.0745 
     78 H78        31.3250   24.5146   -0.7025 H         1 UNK         0.0745 
     79 H79        33.1507   21.5887    0.9490 H         1 UNK         0.0705 
     80 H80        33.6632   22.8448   -0.1477 H         1 UNK         0.0705 
     81 H81        34.0019   24.9070    0.9175 H         1 UNK         0.1334 
     82 H82        31.5912   26.1641    4.2230 H         1 UNK         0.1417 
     83 H83        30.8434   22.3810    2.3559 H         1 UNK         0.1562 
     84 H84        30.2946   24.3301    5.4035 H         1 UNK         0.0748 
     85 H85        29.8298   22.9105    4.5089 H         1 UNK         0.0748 
     86 H86        29.4334   26.5510    5.2039 H         1 UNK         0.0940 
     87 H87        27.7028   26.7018    5.1170 H         1 UNK         0.0940 
     88 H88        29.6939   27.3413    2.8810 H         1 UNK         0.0703 
     89 H89        27.1408   26.5251    2.3933 H         1 UNK         0.3081 
     90 H90        25.7267   28.4540    0.2955 H         1 UNK         0.0719 
     91 H91        27.9472   27.2322   -1.4281 H         1 UNK         0.0809 
     92 H92        26.3359   27.6562   -2.0059 H         1 UNK         0.0809 
     93 H93        27.4255   28.9124   -1.4471 H         1 UNK         0.0809 
     94 H94        26.7439   25.6385    0.3282 H         1 UNK         0.2990 
     95 H95        23.6998   24.3158    1.0890 H         1 UNK         0.0690 
     96 H96        22.6903   24.8339   -1.1090 H         1 UNK         0.0788 
     97 H97        23.3156   23.1936   -1.1135 H         1 UNK         0.0788 
     98 H98        24.2042   24.4798   -1.9294 H         1 UNK         0.0788 
     99 H99        26.0305   23.5070   -0.5622 H         1 UNK         0.2993 
    100 H100       27.9463   22.5621    2.2159 H         1 UNK         0.0949 
    101 H101       27.9583   20.2261    1.3993 H         1 UNK         0.0767 
    102 H102       26.4626   20.5504    2.2584 H         1 UNK         0.0767 
    103 H103       26.4642   20.5012    0.5004 H         1 UNK         0.0767 
    104 H104       28.3544   21.8369   -0.4532 H         1 UNK         0.3013 
    105 H105       26.7673   29.0650    3.9540 H         1 UNK         0.3121 
    106 H106       28.1608   31.0198    5.5609 H         1 UNK         0.0774 
    107 H107       25.9286   32.1311    5.6236 H         1 UNK         0.0815 
    108 H108       25.3236   31.0315    4.3931 H         1 UNK         0.0815 
    109 H109       25.7870   30.4189    5.9819 H         1 UNK         0.0815 
    110 H110       27.3900   30.7931    2.1311 H         1 UNK         0.2987 
    111 H111       27.8289   33.6617    1.6037 H         1 UNK         0.0949 
    112 H112       27.2672   31.3113   -0.2881 H         1 UNK         0.0806 
    113 H113       26.0661   32.4420    0.3349 H         1 UNK         0.0806 
    114 H114       27.3318   33.0075   -0.7431 H         1 UNK         0.0806 
    115 H115       29.4670   30.5345    1.2269 H         1 UNK         0.3010 
    116 H116       31.6587   31.3396   -0.3375 H         1 UNK         0.0829 
    117 H117       31.0002   28.9706    0.0279 H         1 UNK         0.0813 
    118 H118       32.6798   29.2046    0.4901 H         1 UNK         0.0813 
    119 H119       31.4388   29.0838    1.7313 H         1 UNK         0.0813 
    120 H120       31.1950   31.5538    3.1395 H         1 UNK         0.3038 
    121 H121       32.2257   32.5340    4.8268 H         1 UNK         0.0769 
    122 H122       34.2404   33.8440    2.9174 H         1 UNK         0.0811 
    123 H123       33.8351   34.3574    4.5462 H         1 UNK         0.0811 
    124 H124       32.6457   34.5070    3.2679 H         1 UNK         0.0811 
    125 H125       34.5850   32.7573    5.8810 H         1 UNK         0.3204 
    126 H126       36.1616   31.6663    6.9836 H         1 UNK         0.0748 
    127 H127       37.7815   30.1981    5.7495 H         1 UNK         0.0771 
    128 H128       36.7660   30.2680    4.3157 H         1 UNK         0.0771 
    129 H129       37.5099   31.7315    4.9412 H         1 UNK         0.0771 
    130 H130       35.5375   28.7950    5.0260 H         1 UNK         0.2980 
    131 H131       34.5660   27.1820    7.2273 H         1 UNK         0.0545 
    132 H132       31.3799   28.9391    5.3338 H         1 UNK         0.3459 
    133 H133       33.0253   29.3381    4.8969 H         1 UNK         0.3459 
    134 H134       35.6712   25.8432    5.7127 H         1 UNK         0.0616 
    135 H135       34.0372   25.5252    5.2564 H         1 UNK         0.0616 
    136 H136       33.9074   27.3133    1.6655 H         1 UNK         0.0634 
    137 H137       33.0972   27.7511    3.1339 H         1 UNK         0.0634 
@<TRIPOS>BOND
     1    1    2 1    
     2    1   72 1    
     3    1   73 1    
     4    1   74 1    
     5    2    3 2    
     6    2    4 am   BACKBONE|DICT|INTERRES
     7    4    5 1    
     8    4   75 1    
     9    5    6 1    
    10    5   35 1    
    11    5   76 1    
    12    6    7 1    
    13    6   77 1    
    14    6   78 1    
    15    7    8 1    
    16    8    9 1    
    17    8   79 1    
    18    8   80 1    
    19    9   10 ar   
    20    9   14 ar   
    21   10   11 ar   
    22   10   81 1    
    23   11   12 ar   
    24   11   71 1    
    25   12   13 ar   
    26   12   82 1    
    27   13   14 ar   
    28   13   15 1    
    29   14   83 1    
    30   15   16 1    
    31   15   84 1    
    32   15   85 1    
    33   16   17 1    
    34   17   18 1    
    35   17   86 1    
    36   17   87 1    
    37   18   19 1    
    38   18   37 1    
    39   18   88 1    
    40   19   20 am   BACKBONE|DICT|INTERRES
    41   19   89 1    
    42   20   21 2    
    43   20   22 1    
    44   22   23 1    
    45   22   24 1    
    46   22   90 1    
    47   23   91 1    
    48   23   92 1    
    49   23   93 1    
    50   24   25 am   BACKBONE|DICT|INTERRES
    51   24   94 1    
    52   25   26 2    
    53   25   27 1    
    54   27   28 1    
    55   27   29 1    
    56   27   95 1    
    57   28   96 1    
    58   28   97 1    
    59   28   98 1    
    60   29   30 am   BACKBONE|DICT|INTERRES
    61   29   99 1    
    62   30   31 2    
    63   30   32 1    
    64   32   33 1    
    65   32   34 1    
    66   32  100 1    
    67   33  101 1    
    68   33  102 1    
    69   33  103 1    
    70   34   35 am   BACKBONE|DICT|INTERRES
    71   34  104 1    
    72   35   36 2    
    73   37   38 2    
    74   37   39 am   BACKBONE|DICT|INTERRES
    75   39   40 1    
    76   39  105 1    
    77   40   41 1    
    78   40   42 1    
    79   40  106 1    
    80   41  107 1    
    81   41  108 1    
    82   41  109 1    
    83   42   43 2    
    84   42   44 am   BACKBONE|DICT|INTERRES
    85   44   45 1    
    86   44  110 1    
    87   45   46 1    
    88   45   47 1    
    89   45  111 1    
    90   46  112 1    
    91   46  113 1    
    92   46  114 1    
    93   47   48 2    
    94   47   49 am   BACKBONE|DICT|INTERRES
    95   49   50 1    
    96   49  115 1    
    97   50   51 1    
    98   50   52 1    
    99   50  116 1    
   100   51  117 1    
   101   51  118 1    
   102   51  119 1    
   103   52   53 2    
   104   52   54 am   BACKBONE|DICT|INTERRES
   105   54   55 1    
   106   54  120 1    
   107   55   56 1    
   108   55   57 1    
   109   55  121 1    
   110   56  122 1    
   111   56  123 1    
   112   56  124 1    
   113   57   58 2    
   114   57   59 am   BACKBONE|DICT|INTERRES
   115   59   60 1    
   116   59  125 1    
   117   60   61 1    
   118   60   62 1    
   119   60  126 1    
   120   61  127 1    
   121   61  128 1    
   122   61  129 1    
   123   62   63 2    
   124   62   64 am   BACKBONE|DICT|INTERRES
   125   64   65 1    
   126   64  130 1    
   127   65   66 1    
   128   65   69 1    
   129   65  131 1    
   130   66   67 am   BACKBONE|DICT|INTERRES
   131   66   68 2    
   132   67  132 1    
   133   67  133 1    
   134   69   70 1    
   135   69  134 1    
   136   69  135 1    
   137   70   71 1    
   138   71  136 1    
   139   71  137 1    
@<TRIPOS>SUBSTRUCTURE
     1 UNK         1 GROUP             0       ****    0 ROOT    
