@<TRIPOS>MOLECULE
3R136
137   139    1
SMALL
USER_CHARGES


@<TRIPOS>ATOM
      1 CA         25.3459   21.1048   -0.3973 C.3       0 UNK        -0.1979 
      2 C          26.4709   21.3352    0.6017 C.2       0 UNK         0.4864 
      3 O          26.3376   20.9427    1.7619 O.2       0 UNK        -0.5359 
      4 N          27.5647   21.9627    0.1451 N.am      1 UNK        -0.4318 
      5 CA         28.7566   22.3668    0.9063 C.3       1 UNK         0.0824 
      6 C6         29.5140   21.1803    1.5755 C.3       12 UNK        -0.0944 
      7 S7         30.4018   20.1914    0.3216 S.3       12 UNK        -0.2672 
      8 C8         32.1598   20.5618    0.6716 C.3       12 UNK         0.0333 
      9 C9         32.4459   22.0518    0.8328 C.ar      12 UNK        -0.0807 
     10 C10        33.0292   22.5294    2.0100 C.ar      12 UNK        -0.0894 
     11 C11        33.2422   23.8983    2.1950 C.ar      12 UNK        -0.0804 
     12 C12        32.8465   24.7987    1.1986 C.ar      12 UNK        -0.0824 
     13 C13        32.2737   24.3321    0.0101 C.ar      12 UNK        -0.0762 
     14 C14        32.1094   22.9557   -0.1784 C.ar      12 UNK        -0.0782 
     15 C15        31.7963   25.3036   -1.0617 C.3       12 UNK         0.0230 
     16 S16        29.9915   25.1865   -1.2486 S.3       12 UNK        -0.2608 
     17 C17        29.6106   26.4189   -2.5410 C.3       12 UNK        -0.0989 
     18 CA         28.8270   27.6592   -2.0285 C.3       5 UNK         0.0716 
     19 N          27.8091   27.3247   -1.0269 N.am      5 UNK        -0.4135 
     20 C          26.5014   27.1694   -1.2704 C.2       4 UNK         0.5031 
     21 O          25.9816   27.3592   -2.3710 O.2       4 UNK        -0.5229 
     22 CA         25.6103   26.7018   -0.1006 C.3       4 UNK         0.0329 
     23 CB         25.2887   25.2054   -0.2476 C.3       4 UNK        -0.2001 
     24 N          26.2041   26.9390    1.2187 N.am      4 UNK        -0.4303 
     25 C          26.3725   28.1539    1.7626 C.2       3 UNK         0.5044 
     26 O          25.9309   29.1838    1.2552 O.2       3 UNK        -0.5152 
     27 CA         27.1864   28.2624    3.0695 C.3       3 UNK         0.0319 
     28 CB         26.2820   28.6713    4.2428 C.3       3 UNK        -0.2001 
     29 N          27.9380   27.0599    3.4428 N.am      3 UNK        -0.4354 
     30 C          28.9198   26.4998    2.7245 C.2       2 UNK         0.4964 
     31 O          29.2767   26.9189    1.6225 O.2       2 UNK        -0.5047 
     32 CA         29.6142   25.2608    3.3144 C.3       2 UNK         0.0288 
     33 CB         29.0948   24.8328    4.7070 C.3       2 UNK        -0.2113 
     34 N          29.5809   24.1245    2.3899 N.am      2 UNK        -0.4145 
     35 C          28.4877   23.5392    1.8767 C.2       1 UNK         0.5006 
     36 O          27.3376   23.9186    2.1176 O.2       1 UNK        -0.5103 
     37 C          29.7554   28.7782   -1.5288 C.2       5 UNK         0.5055 
     38 O          30.0316   29.7083   -2.2876 O.2       5 UNK        -0.5220 
     39 N          30.1911   28.7107   -0.2651 N.am      6 UNK        -0.4450 
     40 CA         31.0228   29.7173    0.3945 C.3       6 UNK         0.0367 
     41 CB         32.1072   28.9989    1.2190 C.3       6 UNK        -0.1929 
     42 C          30.1467   30.6434    1.2546 C.2       6 UNK         0.5070 
     43 O          30.4549   30.8736    2.4234 O.2       6 UNK        -0.5237 
     44 N          29.0567   31.1597    0.6704 N.am      7 UNK        -0.4739 
     45 CA         27.9853   31.9209    1.3328 C.3       7 UNK         0.0276 
     46 CB         26.9547   32.3451    0.2739 C.3       7 UNK        -0.1927 
     47 C          28.4268   33.1418    2.1628 C.2       7 UNK         0.5013 
     48 O          27.7018   33.5422    3.0741 O.2       7 UNK        -0.5193 
     49 N          29.5976   33.7057    1.8427 N.am      8 UNK        -0.4253 
     50 CA         30.2018   34.8325    2.5500 C.3       8 UNK         0.0242 
     51 CB         31.2939   35.4494    1.6600 C.3       8 UNK        -0.2000 
     52 C          30.7813   34.4798    3.9339 C.2       8 UNK         0.4948 
     53 O          30.9198   35.3930    4.7499 O.2       8 UNK        -0.5275 
     54 N          31.1458   33.2095    4.1785 N.am      9 UNK        -0.4246 
     55 CA         31.8847   32.8132    5.3882 C.3       9 UNK         0.0261 
     56 CB         33.3878   33.0885    5.1788 C.3       9 UNK        -0.1959 
     57 C          31.6719   31.3625    5.8561 C.2       9 UNK         0.5033 
     58 O          32.0926   31.0469    6.9715 O.2       9 UNK        -0.5390 
     59 N          31.0693   30.4983    5.0263 N.am      10 UNK        -0.4215 
     60 CA         30.9865   29.0421    5.1878 C.3       10 UNK         0.0240 
     61 CB         30.1252   28.6570    6.4130 C.3       10 UNK        -0.1982 
     62 C          32.3931   28.4071    5.1596 C.2       10 UNK         0.4970 
     63 O          33.2610   28.9038    4.4382 O.2       10 UNK        -0.4916 
     64 N          32.6013   27.3268    5.9202 N.am      11 UNK        -0.4279 
     65 CA         33.9062   26.6553    6.0576 C.3       11 UNK         0.1003 
     66 C          34.8117   27.2598    7.1718 C.2       11 UNK         0.5709 
     67 N          34.4141   28.3282    7.8539 N.am      11 UNK        -0.7358 
     68 O          35.9067   26.7580    7.4153 O.2       11 UNK        -0.4999 
     69 C69        33.7642   25.1144    6.1954 C.3       12 UNK        -0.0954 
     70 S70        32.7563   24.3571    4.8777 S.3       12 UNK        -0.2268 
     71 C71        33.9071   24.3949    3.4707 C.3       12 UNK         0.0203 
     72 H72        25.1302   20.0399   -0.4813 H         1 UNK         0.0888 
     73 H73        24.4406   21.6116   -0.0638 H         1 UNK         0.0888 
     74 H74        25.5963   21.4789   -1.3899 H         1 UNK         0.0888 
     75 H75        27.5783   22.2498   -0.8231 H         1 UNK         0.3017 
     76 H76        29.4165   22.7903    0.1528 H         1 UNK         0.0873 
     77 H77        30.2320   21.5211    2.3224 H         1 UNK         0.0745 
     78 H78        28.8336   20.5264    2.1206 H         1 UNK         0.0745 
     79 H79        32.7723   20.1677   -0.1403 H         1 UNK         0.0705 
     80 H80        32.4526   20.0150    1.5693 H         1 UNK         0.0705 
     81 H81        33.3112   21.8381    2.7929 H         1 UNK         0.1334 
     82 H82        32.9845   25.8608    1.3490 H         1 UNK         0.1417 
     83 H83        31.6622   22.5909   -1.0937 H         1 UNK         0.1562 
     84 H84        32.2807   25.0692   -2.0106 H         1 UNK         0.0748 
     85 H85        32.0672   26.3299   -0.8099 H         1 UNK         0.0748 
     86 H86        28.9991   25.9067   -3.2854 H         1 UNK         0.0940 
     87 H87        30.5211   26.7071   -3.0707 H         1 UNK         0.0940 
     88 H88        28.3239   28.0907   -2.8969 H         1 UNK         0.0703 
     89 H89        28.1528   27.1250   -0.0946 H         1 UNK         0.3081 
     90 H90        24.6735   27.2603   -0.1562 H         1 UNK         0.0719 
     91 H91        24.7612   25.0097   -1.1822 H         1 UNK         0.0809 
     92 H92        24.6536   24.8501    0.5641 H         1 UNK         0.0809 
     93 H93        26.1952   24.5998   -0.2544 H         1 UNK         0.0809 
     94 H94        26.5861   26.1328    1.6982 H         1 UNK         0.2990 
     95 H95        27.9192   29.0568    2.9166 H         1 UNK         0.0690 
     96 H96        26.8625   28.8562    5.1468 H         1 UNK         0.0788 
     97 H97        25.5416   27.9026    4.4675 H         1 UNK         0.0788 
     98 H98        25.7396   29.5908    4.0172 H         1 UNK         0.0788 
     99 H99        27.6823   26.6230    4.3165 H         1 UNK         0.2993 
    100 H100       30.6603   25.5473    3.4141 H         1 UNK         0.0949 
    101 H101       29.6550   23.9760    5.0817 H         1 UNK         0.0767 
    102 H102       29.2129   25.6281    5.4415 H         1 UNK         0.0767 
    103 H103       28.0423   24.5472    4.6874 H         1 UNK         0.0767 
    104 H104       30.4873   23.7984    2.0804 H         1 UNK         0.3013 
    105 H105       29.8939   27.9384    0.3312 H         1 UNK         0.3121 
    106 H106       31.5268   30.3438   -0.3441 H         1 UNK         0.0774 
    107 H107       31.6731   28.3549    1.9842 H         1 UNK         0.0815 
    108 H108       32.7562   29.7146    1.7256 H         1 UNK         0.0815 
    109 H109       32.7432   28.3828    0.5842 H         1 UNK         0.0815 
    110 H110       28.9044   30.9350   -0.3031 H         1 UNK         0.2987 
    111 H111       27.4939   31.2417    2.0305 H         1 UNK         0.0949 
    112 H112       27.3947   33.0022   -0.4772 H         1 UNK         0.0806 
    113 H113       26.5337   31.4801   -0.2393 H         1 UNK         0.0806 
    114 H114       26.1217   32.8816    0.7306 H         1 UNK         0.0806 
    115 H115       30.1239   33.3028    1.0814 H         1 UNK         0.3010 
    116 H116       29.4275   35.5868    2.7071 H         1 UNK         0.0829 
    117 H117       30.8870   35.7859    0.7062 H         1 UNK         0.0813 
    118 H118       31.7451   36.3185    2.1412 H         1 UNK         0.0813 
    119 H119       32.0959   34.7395    1.4533 H         1 UNK         0.0813 
    120 H120       30.9794   32.5027    3.4695 H         1 UNK         0.3038 
    121 H121       31.5411   33.4284    6.2228 H         1 UNK         0.0769 
    122 H122       33.7839   32.5168    4.3386 H         1 UNK         0.0811 
    123 H123       33.9671   32.8142    6.0616 H         1 UNK         0.0811 
    124 H124       33.5793   34.1443    4.9874 H         1 UNK         0.0811 
    125 H125       30.8064   30.8091    4.0913 H         1 UNK         0.3204 
    126 H126       30.4747   28.6756    4.2973 H         1 UNK         0.0748 
    127 H127       29.1642   29.1709    6.3895 H         1 UNK         0.0771 
    128 H128       29.9106   27.5897    6.4336 H         1 UNK         0.0771 
    129 H129       30.6109   28.9116    7.3555 H         1 UNK         0.0771 
    130 H130       31.8556   26.9749    6.5012 H         1 UNK         0.2980 
    131 H131       34.4713   26.8269    5.1409 H         1 UNK         0.0545 
    132 H132       35.0167   28.7075    8.5670 H         1 UNK         0.3459 
    133 H133       33.5392   28.7823    7.6408 H         1 UNK         0.3459 
    134 H134       34.7438   24.6328    6.1933 H         1 UNK         0.0616 
    135 H135       33.3035   24.8635    7.1522 H         1 UNK         0.0616 
    136 H136       34.2772   25.4105    3.3270 H         1 UNK         0.0634 
    137 H137       34.7765   23.7763    3.6982 H         1 UNK         0.0634 
@<TRIPOS>BOND
     1    1    2 1    
     2    1   72 1    
     3    1   73 1    
     4    1   74 1    
     5    2    3 2    
     6    2    4 am   BACKBONE|DICT|INTERRES
     7    4    5 1    
     8    4   75 1    
     9    5    6 1    
    10    5   35 1    
    11    5   76 1    
    12    6    7 1    
    13    6   77 1    
    14    6   78 1    
    15    7    8 1    
    16    8    9 1    
    17    8   79 1    
    18    8   80 1    
    19    9   10 ar   
    20    9   14 ar   
    21   10   11 ar   
    22   10   81 1    
    23   11   12 ar   
    24   11   71 1    
    25   12   13 ar   
    26   12   82 1    
    27   13   14 ar   
    28   13   15 1    
    29   14   83 1    
    30   15   16 1    
    31   15   84 1    
    32   15   85 1    
    33   16   17 1    
    34   17   18 1    
    35   17   86 1    
    36   17   87 1    
    37   18   19 1    
    38   18   37 1    
    39   18   88 1    
    40   19   20 am   BACKBONE|DICT|INTERRES
    41   19   89 1    
    42   20   21 2    
    43   20   22 1    
    44   22   23 1    
    45   22   24 1    
    46   22   90 1    
    47   23   91 1    
    48   23   92 1    
    49   23   93 1    
    50   24   25 am   BACKBONE|DICT|INTERRES
    51   24   94 1    
    52   25   26 2    
    53   25   27 1    
    54   27   28 1    
    55   27   29 1    
    56   27   95 1    
    57   28   96 1    
    58   28   97 1    
    59   28   98 1    
    60   29   30 am   BACKBONE|DICT|INTERRES
    61   29   99 1    
    62   30   31 2    
    63   30   32 1    
    64   32   33 1    
    65   32   34 1    
    66   32  100 1    
    67   33  101 1    
    68   33  102 1    
    69   33  103 1    
    70   34   35 am   BACKBONE|DICT|INTERRES
    71   34  104 1    
    72   35   36 2    
    73   37   38 2    
    74   37   39 am   BACKBONE|DICT|INTERRES
    75   39   40 1    
    76   39  105 1    
    77   40   41 1    
    78   40   42 1    
    79   40  106 1    
    80   41  107 1    
    81   41  108 1    
    82   41  109 1    
    83   42   43 2    
    84   42   44 am   BACKBONE|DICT|INTERRES
    85   44   45 1    
    86   44  110 1    
    87   45   46 1    
    88   45   47 1    
    89   45  111 1    
    90   46  112 1    
    91   46  113 1    
    92   46  114 1    
    93   47   48 2    
    94   47   49 am   BACKBONE|DICT|INTERRES
    95   49   50 1    
    96   49  115 1    
    97   50   51 1    
    98   50   52 1    
    99   50  116 1    
   100   51  117 1    
   101   51  118 1    
   102   51  119 1    
   103   52   53 2    
   104   52   54 am   BACKBONE|DICT|INTERRES
   105   54   55 1    
   106   54  120 1    
   107   55   56 1    
   108   55   57 1    
   109   55  121 1    
   110   56  122 1    
   111   56  123 1    
   112   56  124 1    
   113   57   58 2    
   114   57   59 am   BACKBONE|DICT|INTERRES
   115   59   60 1    
   116   59  125 1    
   117   60   61 1    
   118   60   62 1    
   119   60  126 1    
   120   61  127 1    
   121   61  128 1    
   122   61  129 1    
   123   62   63 2    
   124   62   64 am   BACKBONE|DICT|INTERRES
   125   64   65 1    
   126   64  130 1    
   127   65   66 1    
   128   65   69 1    
   129   65  131 1    
   130   66   67 am   BACKBONE|DICT|INTERRES
   131   66   68 2    
   132   67  132 1    
   133   67  133 1    
   134   69   70 1    
   135   69  134 1    
   136   69  135 1    
   137   70   71 1    
   138   71  136 1    
   139   71  137 1    
@<TRIPOS>SUBSTRUCTURE
     1 UNK         1 GROUP             0       ****    0 ROOT    
