@<TRIPOS>MOLECULE
3R136
137   139    1
SMALL
USER_CHARGES


@<TRIPOS>ATOM
      1 CA         26.2621   18.9108    3.7434 C.3       0 UNK        -0.1979 
      2 C          26.9851   19.3687    2.4850 C.2       0 UNK         0.4864 
      3 O          27.1285   18.5863    1.5437 O.2       0 UNK        -0.5359 
      4 N          27.4473   20.6258    2.4647 N.am      1 UNK        -0.4318 
      5 CA         28.1015   21.2555    1.3134 C.3       1 UNK         0.0824 
      6 C6         28.9173   22.5009    1.7458 C.3       12 UNK        -0.0944 
      7 S7         30.2794   22.8586    0.5845 S.3       12 UNK        -0.2672 
      8 C8         31.6941   23.0903    1.7054 C.3       12 UNK         0.0333 
      9 C9         31.6641   24.4585    2.3711 C.ar      12 UNK        -0.0807 
     10 C10        32.2493   25.5577    1.7369 C.ar      12 UNK        -0.0894 
     11 C11        32.2535   26.8157    2.3484 C.ar      12 UNK        -0.0804 
     12 C12        31.6563   26.9672    3.6034 C.ar      12 UNK        -0.0824 
     13 C13        31.0433   25.8822    4.2377 C.ar      12 UNK        -0.0762 
     14 C14        31.0627   24.6273    3.6212 C.ar      12 UNK        -0.0782 
     15 C15        30.3545   26.0553    5.5875 C.3       12 UNK         0.0230 
     16 S16        29.0436   27.3275    5.5821 S.3       12 UNK        -0.2608 
     17 C17        28.0544   26.9052    4.1020 C.3       12 UNK        -0.0989 
     18 CA         28.2733   27.9432    2.9659 C.3       5 UNK         0.0716 
     19 N          28.3749   27.3161    1.6438 N.am      5 UNK        -0.4135 
     20 C          28.9035   27.9016    0.5586 C.2       4 UNK         0.5031 
     21 O          29.3890   29.0333    0.5631 O.2       4 UNK        -0.5229 
     22 CA         28.8082   27.1325   -0.7720 C.3       4 UNK         0.0329 
     23 CB         30.1111   26.3718   -1.0534 C.3       4 UNK        -0.2001 
     24 N          27.6699   26.2076   -0.8621 N.am      4 UNK        -0.4303 
     25 C          26.3795   26.5648   -0.7791 C.2       3 UNK         0.5044 
     26 O          26.0234   27.7146   -0.5210 O.2       3 UNK        -0.5152 
     27 CA         25.2946   25.4837   -0.9648 C.3       3 UNK         0.0319 
     28 CB         24.2760   25.8947   -2.0479 C.3       3 UNK        -0.2001 
     29 N          25.7781   24.1140   -1.1955 N.am      3 UNK        -0.4354 
     30 C          26.4530   23.6226   -2.2444 C.2       2 UNK         0.4964 
     31 O          26.8492   24.3100   -3.1862 O.2       2 UNK        -0.5047 
     32 CA         26.7570   22.1095   -2.2078 C.3       2 UNK         0.0288 
     33 CB         27.4946   21.6227   -3.4698 C.3       2 UNK        -0.2113 
     34 N          27.5407   21.7268   -1.0290 N.am      2 UNK        -0.4145 
     35 C          27.0710   21.6114    0.2204 C.2       1 UNK         0.5006 
     36 O          25.8930   21.8256    0.5243 O.2       1 UNK        -0.5103 
     37 C          27.2638   29.1166    3.0275 C.2       5 UNK         0.5055 
     38 O          27.2158   29.8066    4.0457 O.2       5 UNK        -0.5220 
     39 N          26.5161   29.3901    1.9435 N.am      6 UNK        -0.4450 
     40 CA         25.7411   30.6264    1.7697 C.3       6 UNK         0.0367 
     41 CB         24.8890   30.5289    0.4951 C.3       6 UNK        -0.1929 
     42 C          26.6211   31.8939    1.7322 C.2       6 UNK         0.5070 
     43 O          26.1313   32.9756    2.0557 O.2       6 UNK        -0.5237 
     44 N          27.9082   31.7373    1.3866 N.am      7 UNK        -0.4739 
     45 CA         28.9419   32.7723    1.4846 C.3       7 UNK         0.0276 
     46 CB         30.0217   32.4835    0.4263 C.3       7 UNK        -0.1927 
     47 C          29.5692   32.8712    2.8932 C.2       7 UNK         0.5013 
     48 O          30.5369   33.6161    3.0569 O.2       7 UNK        -0.5193 
     49 N          29.0335   32.1175    3.8681 N.am      8 UNK        -0.4253 
     50 CA         29.5485   31.8779    5.2211 C.3       8 UNK         0.0242 
     51 CB         29.7202   33.1954    6.0109 C.3       8 UNK        -0.2000 
     52 C          30.8215   31.0122    5.1959 C.2       8 UNK         0.4948 
     53 O          31.1864   30.4665    4.1514 O.2       8 UNK        -0.5275 
     54 N          31.4988   30.8982    6.3454 N.am      9 UNK        -0.4246 
     55 CA         32.7214   30.1088    6.5471 C.3       9 UNK         0.0261 
     56 CB         32.9036   29.8515    8.0545 C.3       9 UNK        -0.1959 
     57 C          33.9864   30.7186    5.8983 C.2       9 UNK         0.5033 
     58 O          35.0824   30.5845    6.4461 O.2       9 UNK        -0.5390 
     59 N          33.8312   31.3502    4.7268 N.am      10 UNK        -0.4215 
     60 CA         34.8939   31.9628    3.9218 C.3       10 UNK         0.0240 
     61 CB         34.2521   32.7267    2.7520 C.3       10 UNK        -0.1982 
     62 C          35.9296   30.9497    3.4011 C.2       10 UNK         0.4970 
     63 O          37.0680   31.3309    3.1272 O.2       10 UNK        -0.4916 
     64 N          35.5161   29.6821    3.2968 N.am      11 UNK        -0.4279 
     65 CA         36.3613   28.5259    2.9800 C.3       11 UNK         0.1003 
     66 C          37.3133   28.0962    4.1366 C.2       11 UNK         0.5709 
     67 N          37.1800   28.6171    5.3526 N.am      11 UNK        -0.7358 
     68 O          38.2015   27.2749    3.9215 O.2       11 UNK        -0.4999 
     69 C69        35.5015   27.3298    2.4952 C.3       12 UNK        -0.0954 
     70 S70        34.5425   27.7102    0.9880 S.3       12 UNK        -0.2268 
     71 C71        32.8691   28.0230    1.6488 C.3       12 UNK         0.0203 
     72 H72        25.2406   18.6174    3.5028 H         1 UNK         0.0888 
     73 H73        26.7713   18.0505    4.1770 H         1 UNK         0.0888 
     74 H74        26.2202   19.6958    4.4984 H         1 UNK         0.0888 
     75 H75        27.2653   21.2309    3.2524 H         1 UNK         0.3017 
     76 H76        28.7898   20.5157    0.8970 H         1 UNK         0.0873 
     77 H77        28.2880   23.3869    1.8536 H         1 UNK         0.0745 
     78 H78        29.3502   22.3244    2.7307 H         1 UNK         0.0745 
     79 H79        32.6145   22.9858    1.1289 H         1 UNK         0.0705 
     80 H80        31.7163   22.2949    2.4520 H         1 UNK         0.0705 
     81 H81        32.7037   25.4333    0.7635 H         1 UNK         0.1334 
     82 H82        31.6383   27.9375    4.0786 H         1 UNK         0.1417 
     83 H83        30.6057   23.7804    4.1137 H         1 UNK         0.1562 
     84 H84        31.1022   26.3257    6.3342 H         1 UNK         0.0748 
     85 H85        29.9159   25.1136    5.9211 H         1 UNK         0.0748 
     86 H86        27.0025   26.8321    4.3858 H         1 UNK         0.0940 
     87 H87        28.3312   25.9020    3.7753 H         1 UNK         0.0940 
     88 H88        29.2464   28.4134    3.1262 H         1 UNK         0.0703 
     89 H89        27.9821   26.3926    1.5443 H         1 UNK         0.3081 
     90 H90        28.6778   27.8776   -1.5597 H         1 UNK         0.0719 
     91 H91        30.0930   25.8961   -2.0340 H         1 UNK         0.0809 
     92 H92        30.9696   27.0446   -1.0350 H         1 UNK         0.0809 
     93 H93        30.2881   25.5994   -0.3074 H         1 UNK         0.0809 
     94 H94        27.8785   25.2495   -1.1022 H         1 UNK         0.2990 
     95 H95        24.7592   25.4446   -0.0151 H         1 UNK         0.0690 
     96 H96        24.7443   26.0002   -3.0270 H         1 UNK         0.0788 
     97 H97        23.8125   26.8526   -1.8076 H         1 UNK         0.0788 
     98 H98        23.4732   25.1628   -2.1363 H         1 UNK         0.0788 
     99 H99        25.5560   23.4466   -0.4602 H         1 UNK         0.2993 
    100 H100       25.7949   21.5935   -2.1676 H         1 UNK         0.0949 
    101 H101       28.4736   22.0928   -3.5729 H         1 UNK         0.0767 
    102 H102       27.6411   20.5424   -3.4517 H         1 UNK         0.0767 
    103 H103       26.9242   21.8542   -4.3705 H         1 UNK         0.0767 
    104 H104       28.5318   21.5957   -1.1776 H         1 UNK         0.3013 
    105 H105       26.5601   28.7744    1.1370 H         1 UNK         0.3121 
    106 H106       25.0678   30.7208    2.6243 H         1 UNK         0.0774 
    107 H107       24.2708   31.4189    0.3694 H         1 UNK         0.0815 
    108 H108       25.5089   30.4336   -0.3973 H         1 UNK         0.0815 
    109 H109       24.2176   29.6707    0.5301 H         1 UNK         0.0815 
    110 H110       28.2347   30.8113    1.1305 H         1 UNK         0.2987 
    111 H111       28.4975   33.7447    1.2616 H         1 UNK         0.0949 
    112 H112       30.5441   31.5481    0.6323 H         1 UNK         0.0806 
    113 H113       29.5923   32.4155   -0.5733 H         1 UNK         0.0806 
    114 H114       30.7712   33.2757    0.4020 H         1 UNK         0.0806 
    115 H115       28.2641   31.5079    3.6153 H         1 UNK         0.3010 
    116 H116       28.7859   31.2832    5.7260 H         1 UNK         0.0829 
    117 H117       29.8442   33.0070    7.0775 H         1 UNK         0.0813 
    118 H118       30.5905   33.7619    5.6774 H         1 UNK         0.0813 
    119 H119       28.8452   33.8366    5.9037 H         1 UNK         0.0813 
    120 H120       31.1565   31.3989    7.1528 H         1 UNK         0.3038 
    121 H121       32.5717   29.1385    6.0691 H         1 UNK         0.0769 
    122 H122       33.7487   29.1876    8.2419 H         1 UNK         0.0811 
    123 H123       32.0233   29.3743    8.4857 H         1 UNK         0.0811 
    124 H124       33.0883   30.7770    8.6011 H         1 UNK         0.0811 
    125 H125       32.8968   31.3410    4.3257 H         1 UNK         0.3204 
    126 H126       35.4233   32.6767    4.5560 H         1 UNK         0.0748 
    127 H127       35.0104   33.2221    2.1441 H         1 UNK         0.0771 
    128 H128       33.6892   32.0611    2.0957 H         1 UNK         0.0771 
    129 H129       33.5685   33.4979    3.1086 H         1 UNK         0.0771 
    130 H130       34.5623   29.4730    3.5436 H         1 UNK         0.2980 
    131 H131       37.0134   28.8183    2.1549 H         1 UNK         0.0545 
    132 H132       36.4634   29.3025    5.5606 H         1 UNK         0.3459 
    133 H133       37.8129   28.3242    6.0795 H         1 UNK         0.3459 
    134 H134       36.1388   26.4766    2.2559 H         1 UNK         0.0616 
    135 H135       34.8334   26.9909    3.2884 H         1 UNK         0.0616 
    136 H136       32.2181   28.3123    0.8231 H         1 UNK         0.0634 
    137 H137       32.9065   28.8829    2.3188 H         1 UNK         0.0634 
@<TRIPOS>BOND
     1    1    2 1    
     2    1   72 1    
     3    1   73 1    
     4    1   74 1    
     5    2    3 2    
     6    2    4 am   BACKBONE|DICT|INTERRES
     7    4    5 1    
     8    4   75 1    
     9    5    6 1    
    10    5   35 1    
    11    5   76 1    
    12    6    7 1    
    13    6   77 1    
    14    6   78 1    
    15    7    8 1    
    16    8    9 1    
    17    8   79 1    
    18    8   80 1    
    19    9   10 ar   
    20    9   14 ar   
    21   10   11 ar   
    22   10   81 1    
    23   11   12 ar   
    24   11   71 1    
    25   12   13 ar   
    26   12   82 1    
    27   13   14 ar   
    28   13   15 1    
    29   14   83 1    
    30   15   16 1    
    31   15   84 1    
    32   15   85 1    
    33   16   17 1    
    34   17   18 1    
    35   17   86 1    
    36   17   87 1    
    37   18   19 1    
    38   18   37 1    
    39   18   88 1    
    40   19   20 am   BACKBONE|DICT|INTERRES
    41   19   89 1    
    42   20   21 2    
    43   20   22 1    
    44   22   23 1    
    45   22   24 1    
    46   22   90 1    
    47   23   91 1    
    48   23   92 1    
    49   23   93 1    
    50   24   25 am   BACKBONE|DICT|INTERRES
    51   24   94 1    
    52   25   26 2    
    53   25   27 1    
    54   27   28 1    
    55   27   29 1    
    56   27   95 1    
    57   28   96 1    
    58   28   97 1    
    59   28   98 1    
    60   29   30 am   BACKBONE|DICT|INTERRES
    61   29   99 1    
    62   30   31 2    
    63   30   32 1    
    64   32   33 1    
    65   32   34 1    
    66   32  100 1    
    67   33  101 1    
    68   33  102 1    
    69   33  103 1    
    70   34   35 am   BACKBONE|DICT|INTERRES
    71   34  104 1    
    72   35   36 2    
    73   37   38 2    
    74   37   39 am   BACKBONE|DICT|INTERRES
    75   39   40 1    
    76   39  105 1    
    77   40   41 1    
    78   40   42 1    
    79   40  106 1    
    80   41  107 1    
    81   41  108 1    
    82   41  109 1    
    83   42   43 2    
    84   42   44 am   BACKBONE|DICT|INTERRES
    85   44   45 1    
    86   44  110 1    
    87   45   46 1    
    88   45   47 1    
    89   45  111 1    
    90   46  112 1    
    91   46  113 1    
    92   46  114 1    
    93   47   48 2    
    94   47   49 am   BACKBONE|DICT|INTERRES
    95   49   50 1    
    96   49  115 1    
    97   50   51 1    
    98   50   52 1    
    99   50  116 1    
   100   51  117 1    
   101   51  118 1    
   102   51  119 1    
   103   52   53 2    
   104   52   54 am   BACKBONE|DICT|INTERRES
   105   54   55 1    
   106   54  120 1    
   107   55   56 1    
   108   55   57 1    
   109   55  121 1    
   110   56  122 1    
   111   56  123 1    
   112   56  124 1    
   113   57   58 2    
   114   57   59 am   BACKBONE|DICT|INTERRES
   115   59   60 1    
   116   59  125 1    
   117   60   61 1    
   118   60   62 1    
   119   60  126 1    
   120   61  127 1    
   121   61  128 1    
   122   61  129 1    
   123   62   63 2    
   124   62   64 am   BACKBONE|DICT|INTERRES
   125   64   65 1    
   126   64  130 1    
   127   65   66 1    
   128   65   69 1    
   129   65  131 1    
   130   66   67 am   BACKBONE|DICT|INTERRES
   131   66   68 2    
   132   67  132 1    
   133   67  133 1    
   134   69   70 1    
   135   69  134 1    
   136   69  135 1    
   137   70   71 1    
   138   71  136 1    
   139   71  137 1    
@<TRIPOS>SUBSTRUCTURE
     1 UNK         1 GROUP             0       ****    0 ROOT    
