@<TRIPOS>MOLECULE
3R136
137   139    1
SMALL
USER_CHARGES


@<TRIPOS>ATOM
      1 CA         30.2730   26.7844    3.5623 C.3       0 UNK        -0.1979 
      2 C          29.6146   25.4133    3.4995 C.2       0 UNK         0.4864 
      3 O          29.6810   24.6557    4.4687 O.2       0 UNK        -0.5359 
      4 N          28.9717   25.1066    2.3683 N.am      1 UNK        -0.4318 
      5 CA         28.2667   23.8561    2.0939 C.3       1 UNK         0.0824 
      6 C6         29.0950   22.8669    1.2286 C.3       12 UNK        -0.0944 
      7 S7         30.3136   21.9325    2.2122 S.3       12 UNK        -0.2672 
      8 C8         31.8451   22.1525    1.2532 C.3       12 UNK         0.0333 
      9 C9         32.3998   23.5631    1.3773 C.ar      12 UNK        -0.0807 
     10 C10        32.9478   23.9947    2.5883 C.ar      12 UNK        -0.0894 
     11 C11        33.4606   25.2881    2.7142 C.ar      12 UNK        -0.0804 
     12 C12        33.4287   26.1523    1.6154 C.ar      12 UNK        -0.0824 
     13 C13        32.8878   25.7293    0.3973 C.ar      12 UNK        -0.0762 
     14 C14        32.3793   24.4318    0.2826 C.ar      12 UNK        -0.0782 
     15 C15        32.8599   26.6720   -0.7967 C.3       12 UNK         0.0230 
     16 S16        31.3888   27.7423   -0.7783 S.3       12 UNK        -0.2608 
     17 C17        30.0630   26.5322   -1.1098 C.3       12 UNK        -0.0989 
     18 CA         28.6985   27.2097   -1.3854 C.3       5 UNK         0.0716 
     19 N          27.7050   26.2528   -1.8492 N.am      5 UNK        -0.4135 
     20 C          27.3577   26.0536   -3.1232 C.2       4 UNK         0.5031 
     21 O          27.9141   26.5863   -4.0844 O.2       4 UNK        -0.5229 
     22 CA         26.1587   25.1226   -3.3623 C.3       4 UNK         0.0329 
     23 CB         26.5976   23.6493   -3.3349 C.3       4 UNK        -0.2001 
     24 N          25.0769   25.3325   -2.3947 N.am      4 UNK        -0.4303 
     25 C          24.3208   26.4395   -2.3129 C.2       3 UNK         0.5044 
     26 O          24.4571   27.4155   -3.0512 O.2       3 UNK        -0.5152 
     27 CA         23.2086   26.4642   -1.2473 C.3       3 UNK         0.0319 
     28 CB         21.8410   26.1930   -1.8956 C.3       3 UNK        -0.2001 
     29 N          23.4282   25.4915   -0.1753 N.am      3 UNK        -0.4354 
     30 C          24.2462   25.6820    0.8681 C.2       2 UNK         0.4964 
     31 O          24.8180   26.7470    1.0989 O.2       2 UNK        -0.5047 
     32 CA         24.4663   24.4846    1.8166 C.3       2 UNK         0.0288 
     33 CB         23.9221   23.1436    1.2693 C.3       2 UNK        -0.2113 
     34 N          25.8697   24.3139    2.2172 N.am      2 UNK        -0.4145 
     35 C          26.9394   24.2189    1.4117 C.2       1 UNK         0.5006 
     36 O          26.9111   24.3901    0.1892 O.2       1 UNK        -0.5103 
     37 C          28.0838   27.8890   -0.1555 C.2       5 UNK         0.5055 
     38 O          28.3811   27.4995    0.9748 O.2       5 UNK        -0.5220 
     39 N          27.2127   28.8772   -0.3938 N.am      6 UNK        -0.4450 
     40 CA         26.5144   29.6531    0.6362 C.3       6 UNK         0.0367 
     41 CB         25.2188   30.2272    0.0327 C.3       6 UNK        -0.1929 
     42 C          27.4143   30.7398    1.2604 C.2       6 UNK         0.5070 
     43 O          27.0338   31.9115    1.3039 O.2       6 UNK        -0.5237 
     44 N          28.6081   30.3387    1.7098 N.am      7 UNK        -0.4739 
     45 CA         29.5854   31.1962    2.3760 C.3       7 UNK         0.0276 
     46 CB         30.9718   30.5408    2.2758 C.3       7 UNK        -0.1927 
     47 C          29.2127   31.4270    3.8483 C.2       7 UNK         0.5013 
     48 O          28.5887   30.5622    4.4684 O.2       7 UNK        -0.5193 
     49 N          29.6493   32.5704    4.3938 N.am      8 UNK        -0.4253 
     50 CA         29.4836   32.9273    5.8074 C.3       8 UNK         0.0242 
     51 CB         29.7819   34.4241    5.9945 C.3       8 UNK        -0.2000 
     52 C          30.3579   32.0821    6.7526 C.2       8 UNK         0.4948 
     53 O          29.9644   31.8620    7.8988 O.2       8 UNK        -0.5275 
     54 N          31.5134   31.6220    6.2561 N.am      9 UNK        -0.4246 
     55 CA         32.4358   30.7269    6.9487 C.3       9 UNK         0.0261 
     56 CB         33.2453   31.4726    8.0302 C.3       9 UNK        -0.1959 
     57 C          33.3360   30.0426    5.9174 C.2       9 UNK         0.5033 
     58 O          33.2244   28.8313    5.7308 O.2       9 UNK        -0.5390 
     59 N          34.2015   30.8342    5.2630 N.am      10 UNK        -0.4215 
     60 CA         35.2024   30.4732    4.2428 C.3       10 UNK         0.0240 
     61 CB         34.5457   29.9285    2.9580 C.3       10 UNK        -0.1982 
     62 C          36.3234   29.5374    4.7331 C.2       10 UNK         0.4970 
     63 O          37.4982   29.8646    4.5632 O.2       10 UNK        -0.4916 
     64 N          35.9450   28.4033    5.3269 N.am      11 UNK        -0.4279 
     65 CA         36.8457   27.3782    5.8745 C.3       11 UNK         0.1003 
     66 C          37.4033   27.7105    7.2899 C.2       11 UNK         0.5709 
     67 N          36.9723   28.7820    7.9460 N.am      11 UNK        -0.7358 
     68 O          38.2565   26.9873    7.7989 O.2       11 UNK        -0.4999 
     69 C69        36.1834   25.9757    5.8411 C.3       12 UNK        -0.0954 
     70 S70        35.8148   25.4137    4.1446 S.3       12 UNK        -0.2268 
     71 C71        34.0324   25.7522    4.0427 C.3       12 UNK         0.0203 
     72 H72        30.6306   27.0905    2.5788 H         1 UNK         0.0888 
     73 H73        31.1272   26.7719    4.2389 H         1 UNK         0.0888 
     74 H74        29.5633   27.5307    3.9190 H         1 UNK         0.0888 
     75 H75        28.8480   25.8406    1.6726 H         1 UNK         0.3017 
     76 H76        28.0171   23.3584    3.0338 H         1 UNK         0.0873 
     77 H77        28.4464   22.1222    0.7625 H         1 UNK         0.0745 
     78 H78        29.5847   23.3907    0.4064 H         1 UNK         0.0745 
     79 H79        32.5911   21.4450    1.6179 H         1 UNK         0.0705 
     80 H80        31.6607   21.8903    0.2101 H         1 UNK         0.0705 
     81 H81        32.9644   23.3242    3.4368 H         1 UNK         0.1334 
     82 H82        33.8232   27.1545    1.7072 H         1 UNK         0.1417 
     83 H83        31.9626   24.1007   -0.6588 H         1 UNK         0.1562 
     84 H84        32.8938   26.1110   -1.7320 H         1 UNK         0.0748 
     85 H85        33.7514   27.3009   -0.7887 H         1 UNK         0.0748 
     86 H86        29.9910   25.8303   -0.2782 H         1 UNK         0.0940 
     87 H87        30.3574   25.9425   -1.9794 H         1 UNK         0.0940 
     88 H88        28.8475   27.9810   -2.1447 H         1 UNK         0.0703 
     89 H89        27.2192   25.7327   -1.1205 H         1 UNK         0.3081 
     90 H90        25.7638   25.3411   -4.3569 H         1 UNK         0.0719 
     91 H91        26.9802   23.3568   -2.3562 H         1 UNK         0.0809 
     92 H92        25.7708   22.9842   -3.5844 H         1 UNK         0.0809 
     93 H93        27.3900   23.4657   -4.0619 H         1 UNK         0.0809 
     94 H94        24.9226   24.5962   -1.7218 H         1 UNK         0.2990 
     95 H95        23.1853   27.4674   -0.8169 H         1 UNK         0.0690 
     96 H96        21.0347   26.2647   -1.1654 H         1 UNK         0.0788 
     97 H97        21.7969   25.2025   -2.3502 H         1 UNK         0.0788 
     98 H98        21.6302   26.9211   -2.6803 H         1 UNK         0.0788 
     99 H99        22.9784   24.5926   -0.2753 H         1 UNK         0.2993 
    100 H100       23.9133   24.7221    2.7267 H         1 UNK         0.0949 
    101 H101       22.8445   23.1824    1.1049 H         1 UNK         0.0767 
    102 H102       24.3990   22.8623    0.3292 H         1 UNK         0.0767 
    103 H103       24.0982   22.3340    1.9781 H         1 UNK         0.0767 
    104 H104       26.0225   24.2271    3.2122 H         1 UNK         0.3013 
    105 H105       27.0270   29.1380   -1.3517 H         1 UNK         0.3121 
    106 H106       26.2302   28.9803    1.4480 H         1 UNK         0.0774 
    107 H107       24.5817   29.4345   -0.3588 H         1 UNK         0.0815 
    108 H108       25.4248   30.9261   -0.7787 H         1 UNK         0.0815 
    109 H109       24.6395   30.7614    0.7869 H         1 UNK         0.0815 
    110 H110       28.8130   29.3456    1.6677 H         1 UNK         0.2987 
    111 H111       29.6135   32.1593    1.8609 H         1 UNK         0.0949 
    112 H112       31.0124   29.5899    2.8082 H         1 UNK         0.0806 
    113 H113       31.2532   30.3561    1.2387 H         1 UNK         0.0806 
    114 H114       31.7338   31.1887    2.7080 H         1 UNK         0.0806 
    115 H115       30.1431   33.2337    3.8131 H         1 UNK         0.3010 
    116 H116       28.4409   32.7509    6.0815 H         1 UNK         0.0829 
    117 H117       29.1159   35.0406    5.3904 H         1 UNK         0.0813 
    118 H118       29.6406   34.7220    7.0346 H         1 UNK         0.0813 
    119 H119       30.8090   34.6707    5.7226 H         1 UNK         0.0813 
    120 H120       31.7330   31.8252    5.2914 H         1 UNK         0.3038 
    121 H121       31.8534   29.9422    7.4370 H         1 UNK         0.0769 
    122 H122       33.7599   32.3474    7.6322 H         1 UNK         0.0811 
    123 H123       33.9976   30.8204    8.4758 H         1 UNK         0.0811 
    124 H124       32.5999   31.8128    8.8402 H         1 UNK         0.0811 
    125 H125       34.2225   31.8077    5.5349 H         1 UNK         0.3204 
    126 H126       35.6947   31.4093    3.9732 H         1 UNK         0.0748 
    127 H127       33.8678   29.0993    3.1572 H         1 UNK         0.0771 
    128 H128       33.9828   30.7083    2.4476 H         1 UNK         0.0771 
    129 H129       35.2972   29.5707    2.2526 H         1 UNK         0.0771 
    130 H130       34.9474   28.2578    5.4626 H         1 UNK         0.2980 
    131 H131       37.7240   27.3333    5.2276 H         1 UNK         0.0545 
    132 H132       37.3487   28.9856    8.8585 H         1 UNK         0.3459 
    133 H133       36.2837   29.3889    7.5343 H         1 UNK         0.3459 
    134 H134       36.8461   25.2285    6.2816 H         1 UNK         0.0616 
    135 H135       35.2733   25.9647    6.4436 H         1 UNK         0.0616 
    136 H136       33.8571   26.8200    4.1658 H         1 UNK         0.0634 
    137 H137       33.5165   25.2557    4.8661 H         1 UNK         0.0634 
@<TRIPOS>BOND
     1    1    2 1    
     2    1   72 1    
     3    1   73 1    
     4    1   74 1    
     5    2    3 2    
     6    2    4 am   BACKBONE|DICT|INTERRES
     7    4    5 1    
     8    4   75 1    
     9    5    6 1    
    10    5   35 1    
    11    5   76 1    
    12    6    7 1    
    13    6   77 1    
    14    6   78 1    
    15    7    8 1    
    16    8    9 1    
    17    8   79 1    
    18    8   80 1    
    19    9   10 ar   
    20    9   14 ar   
    21   10   11 ar   
    22   10   81 1    
    23   11   12 ar   
    24   11   71 1    
    25   12   13 ar   
    26   12   82 1    
    27   13   14 ar   
    28   13   15 1    
    29   14   83 1    
    30   15   16 1    
    31   15   84 1    
    32   15   85 1    
    33   16   17 1    
    34   17   18 1    
    35   17   86 1    
    36   17   87 1    
    37   18   19 1    
    38   18   37 1    
    39   18   88 1    
    40   19   20 am   BACKBONE|DICT|INTERRES
    41   19   89 1    
    42   20   21 2    
    43   20   22 1    
    44   22   23 1    
    45   22   24 1    
    46   22   90 1    
    47   23   91 1    
    48   23   92 1    
    49   23   93 1    
    50   24   25 am   BACKBONE|DICT|INTERRES
    51   24   94 1    
    52   25   26 2    
    53   25   27 1    
    54   27   28 1    
    55   27   29 1    
    56   27   95 1    
    57   28   96 1    
    58   28   97 1    
    59   28   98 1    
    60   29   30 am   BACKBONE|DICT|INTERRES
    61   29   99 1    
    62   30   31 2    
    63   30   32 1    
    64   32   33 1    
    65   32   34 1    
    66   32  100 1    
    67   33  101 1    
    68   33  102 1    
    69   33  103 1    
    70   34   35 am   BACKBONE|DICT|INTERRES
    71   34  104 1    
    72   35   36 2    
    73   37   38 2    
    74   37   39 am   BACKBONE|DICT|INTERRES
    75   39   40 1    
    76   39  105 1    
    77   40   41 1    
    78   40   42 1    
    79   40  106 1    
    80   41  107 1    
    81   41  108 1    
    82   41  109 1    
    83   42   43 2    
    84   42   44 am   BACKBONE|DICT|INTERRES
    85   44   45 1    
    86   44  110 1    
    87   45   46 1    
    88   45   47 1    
    89   45  111 1    
    90   46  112 1    
    91   46  113 1    
    92   46  114 1    
    93   47   48 2    
    94   47   49 am   BACKBONE|DICT|INTERRES
    95   49   50 1    
    96   49  115 1    
    97   50   51 1    
    98   50   52 1    
    99   50  116 1    
   100   51  117 1    
   101   51  118 1    
   102   51  119 1    
   103   52   53 2    
   104   52   54 am   BACKBONE|DICT|INTERRES
   105   54   55 1    
   106   54  120 1    
   107   55   56 1    
   108   55   57 1    
   109   55  121 1    
   110   56  122 1    
   111   56  123 1    
   112   56  124 1    
   113   57   58 2    
   114   57   59 am   BACKBONE|DICT|INTERRES
   115   59   60 1    
   116   59  125 1    
   117   60   61 1    
   118   60   62 1    
   119   60  126 1    
   120   61  127 1    
   121   61  128 1    
   122   61  129 1    
   123   62   63 2    
   124   62   64 am   BACKBONE|DICT|INTERRES
   125   64   65 1    
   126   64  130 1    
   127   65   66 1    
   128   65   69 1    
   129   65  131 1    
   130   66   67 am   BACKBONE|DICT|INTERRES
   131   66   68 2    
   132   67  132 1    
   133   67  133 1    
   134   69   70 1    
   135   69  134 1    
   136   69  135 1    
   137   70   71 1    
   138   71  136 1    
   139   71  137 1    
@<TRIPOS>SUBSTRUCTURE
     1 UNK         1 GROUP             0       ****    0 ROOT    
