@<TRIPOS>MOLECULE
3R136
137   139    1
SMALL
USER_CHARGES


@<TRIPOS>ATOM
      1 CA         28.1675   25.3154    3.5374 C.3       0 UNK        -0.1979 
      2 C          27.6933   23.9676    3.0178 C.2       0 UNK         0.4864 
      3 O          26.6751   23.4578    3.4886 O.2       0 UNK        -0.5359 
      4 N          28.4263   23.3748    2.0662 N.am      1 UNK        -0.4318 
      5 CA         28.1376   22.0586    1.4921 C.3       1 UNK         0.0824 
      6 C6         29.3577   21.4402    0.7614 C.3       12 UNK        -0.0944 
      7 S7         30.1748   22.5345   -0.4560 S.3       12 UNK        -0.2672 
      8 C8         31.7432   22.9613    0.3698 C.3       12 UNK         0.0333 
      9 C9         31.8382   24.4531    0.6510 C.ar      12 UNK        -0.0807 
     10 C10        31.7786   24.9429    1.9603 C.ar      12 UNK        -0.0894 
     11 C11        31.9168   26.3131    2.2083 C.ar      12 UNK        -0.0804 
     12 C12        32.1030   27.1909    1.1375 C.ar      12 UNK        -0.0824 
     13 C13        32.1495   26.7162   -0.1745 C.ar      12 UNK        -0.0762 
     14 C14        32.0260   25.3442   -0.4096 C.ar      12 UNK        -0.0782 
     15 C15        32.3599   27.6806   -1.3341 C.3       12 UNK         0.0230 
     16 S16        30.8723   28.6683   -1.7003 S.3       12 UNK        -0.2608 
     17 C17        29.6674   27.3830   -2.1925 C.3       12 UNK        -0.0989 
     18 CA         28.2760   27.5295   -1.5261 C.3       5 UNK         0.0716 
     19 N          27.3890   26.4337   -1.8795 N.am      5 UNK        -0.4135 
     20 C          26.6399   26.3189   -2.9768 C.2       4 UNK         0.5031 
     21 O          26.6923   27.0912   -3.9347 O.2       4 UNK        -0.5229 
     22 CA         25.6376   25.1527   -2.9852 C.3       4 UNK         0.0329 
     23 CB         26.2715   23.8978   -3.6065 C.3       4 UNK        -0.2001 
     24 N          25.1505   24.8359   -1.6376 N.am      4 UNK        -0.4303 
     25 C          24.2518   25.5703   -0.9606 C.2       3 UNK         0.5044 
     26 O          23.7214   26.5794   -1.4282 O.2       3 UNK        -0.5152 
     27 CA         23.8939   25.1306    0.4794 C.3       3 UNK         0.0319 
     28 CB         22.4282   25.4435    0.8477 C.3       3 UNK        -0.2001 
     29 N          24.2221   23.7309    0.7775 N.am      3 UNK        -0.4354 
     30 C          23.7599   22.6322    0.1587 C.2       2 UNK         0.4964 
     31 O          22.8411   22.6463   -0.6617 O.2       2 UNK        -0.5047 
     32 CA         24.4707   21.2965    0.4757 C.3       2 UNK         0.0288 
     33 CB         24.5666   20.3906   -0.7710 C.3       2 UNK        -0.2113 
     34 N          25.8002   21.4321    1.0961 N.am      2 UNK        -0.4145 
     35 C          26.8652   22.1001    0.6207 C.2       1 UNK         0.5006 
     36 O          26.8516   22.7608   -0.4209 O.2       1 UNK        -0.5103 
     37 C          28.2973   27.5216    0.0117 C.2       5 UNK         0.5055 
     38 O          28.1835   26.4494    0.6123 O.2       5 UNK        -0.5220 
     39 N          28.3929   28.7083    0.6188 N.am      6 UNK        -0.4450 
     40 CA         28.3320   28.9090    2.0641 C.3       6 UNK         0.0367 
     41 CB         26.8631   28.9546    2.5333 C.3       6 UNK        -0.1929 
     42 C          29.1283   30.1631    2.4422 C.2       6 UNK         0.5070 
     43 O          28.6028   31.0602    3.1041 O.2       6 UNK        -0.5237 
     44 N          30.3906   30.2154    1.9972 N.am      7 UNK        -0.4739 
     45 CA         31.3529   31.2809    2.2948 C.3       7 UNK         0.0276 
     46 CB         32.5271   31.2037    1.3001 C.3       7 UNK        -0.1927 
     47 C          31.8268   31.2312    3.7608 C.2       7 UNK         0.5013 
     48 O          32.9787   30.8866    4.0323 O.2       7 UNK        -0.5193 
     49 N          30.9256   31.5832    4.6871 N.am      8 UNK        -0.4253 
     50 CA         31.1288   31.5900    6.1411 C.3       8 UNK         0.0242 
     51 CB         29.8292   32.0332    6.8307 C.3       8 UNK        -0.2000 
     52 C          32.3132   32.4477    6.6221 C.2       8 UNK         0.4948 
     53 O          32.8963   32.1337    7.6586 O.2       8 UNK        -0.5275 
     54 N          32.6837   33.4764    5.8464 N.am      9 UNK        -0.4246 
     55 CA         33.8865   34.2879    6.0534 C.3       9 UNK         0.0261 
     56 CB         33.8723   35.4721    5.0731 C.3       9 UNK        -0.1959 
     57 C          35.2006   33.4920    5.9173 C.2       9 UNK         0.5033 
     58 O          36.1927   33.8731    6.5404 O.2       9 UNK        -0.5390 
     59 N          35.1870   32.4125    5.1222 N.am      10 UNK        -0.4215 
     60 CA         36.2988   31.4760    4.9692 C.3       10 UNK         0.0240 
     61 CB         36.4351   31.0773    3.4892 C.3       10 UNK        -0.1982 
     62 C          36.0906   30.2341    5.8482 C.2       10 UNK         0.4970 
     63 O          37.0316   29.8122    6.5216 O.2       10 UNK        -0.4916 
     64 N          34.8777   29.6651    5.8162 N.am      11 UNK        -0.4279 
     65 CA         34.5230   28.4253    6.5259 C.3       11 UNK         0.1003 
     66 C          34.3814   28.5601    8.0682 C.2       11 UNK         0.5709 
     67 N          34.1546   29.7420    8.6257 N.am      11 UNK        -0.7358 
     68 O          34.4944   27.5641    8.7790 O.2       11 UNK        -0.4999 
     69 C69        33.2756   27.7466    5.9043 C.3       12 UNK        -0.0954 
     70 S70        33.5864   27.2130    4.1917 S.3       12 UNK        -0.2268 
     71 C71        31.8979   26.8520    3.6298 C.3       12 UNK         0.0203 
     72 H72        29.0736   25.6458    3.0315 H         1 UNK         0.0888 
     73 H73        28.3750   25.2571    4.6053 H         1 UNK         0.0888 
     74 H74        27.3957   26.0668    3.3779 H         1 UNK         0.0888 
     75 H75        29.1945   23.8738    1.6378 H         1 UNK         0.3017 
     76 H76        27.9283   21.3936    2.3334 H         1 UNK         0.0873 
     77 H77        29.0630   20.5250    0.2441 H         1 UNK         0.0745 
     78 H78        30.0868   21.1148    1.5037 H         1 UNK         0.0745 
     79 H79        31.8763   22.3906    1.2891 H         1 UNK         0.0705 
     80 H80        32.5677   22.6690   -0.2820 H         1 UNK         0.0705 
     81 H81        31.6489   24.2580    2.7873 H         1 UNK         0.1334 
     82 H82        32.2346   28.2434    1.3294 H         1 UNK         0.1417 
     83 H83        32.0758   24.9633   -1.4208 H         1 UNK         0.1562 
     84 H84        32.6626   27.1443   -2.2349 H         1 UNK         0.0748 
     85 H85        33.1808   28.3580   -1.0941 H         1 UNK         0.0748 
     86 H86        30.0690   26.3905   -1.9900 H         1 UNK         0.0940 
     87 H87        29.5567   27.4346   -3.2767 H         1 UNK         0.0940 
     88 H88        27.8183   28.4648   -1.8555 H         1 UNK         0.0703 
     89 H89        27.2748   25.7630   -1.1277 H         1 UNK         0.3081 
     90 H90        24.7856   25.4464   -3.6021 H         1 UNK         0.0719 
     91 H91        27.1416   23.5614   -3.0407 H         1 UNK         0.0809 
     92 H92        25.5600   23.0728   -3.6466 H         1 UNK         0.0809 
     93 H93        26.6018   24.0928   -4.6277 H         1 UNK         0.0809 
     94 H94        25.5772   24.0344   -1.1793 H         1 UNK         0.2990 
     95 H95        24.5304   25.7281    1.1339 H         1 UNK         0.0690 
     96 H96        22.2019   25.1386    1.8693 H         1 UNK         0.0788 
     97 H97        21.7265   24.9389    0.1830 H         1 UNK         0.0788 
     98 H98        22.2262   26.5132    0.7794 H         1 UNK         0.0788 
     99 H99        24.9711   23.5979    1.4445 H         1 UNK         0.2993 
    100 H100       23.8396   20.7906    1.2081 H         1 UNK         0.0949 
    101 H101       23.5777   20.1588   -1.1688 H         1 UNK         0.0767 
    102 H102       25.1362   20.8657   -1.5709 H         1 UNK         0.0767 
    103 H103       25.0474   19.4410   -0.5357 H         1 UNK         0.0767 
    104 H104       25.8979   20.9774    1.9942 H         1 UNK         0.3013 
    105 H105       28.5135   29.5427    0.0594 H         1 UNK         0.3121 
    106 H106       28.8275   28.0740    2.5631 H         1 UNK         0.0774 
    107 H107       26.3328   28.0369    2.2795 H         1 UNK         0.0815 
    108 H108       26.3236   29.7871    2.0804 H         1 UNK         0.0815 
    109 H109       26.8021   29.0742    3.6157 H         1 UNK         0.0815 
    110 H110       30.7259   29.4458    1.4373 H         1 UNK         0.2987 
    111 H111       30.8569   32.2423    2.1427 H         1 UNK         0.0949 
    112 H112       33.1257   30.3031    1.4355 H         1 UNK         0.0806 
    113 H113       32.1791   31.2257    0.2671 H         1 UNK         0.0806 
    114 H114       33.1991   32.0527    1.4322 H         1 UNK         0.0806 
    115 H115       29.9828   31.7684    4.3567 H         1 UNK         0.3010 
    116 H116       31.3391   30.5618    6.4410 H         1 UNK         0.0829 
    117 H117       29.0011   31.3693    6.5812 H         1 UNK         0.0813 
    118 H118       29.9379   32.0191    7.9162 H         1 UNK         0.0813 
    119 H119       29.5457   33.0466    6.5437 H         1 UNK         0.0813 
    120 H120       32.1356   33.6726    5.0217 H         1 UNK         0.3038 
    121 H121       33.8488   34.6835    7.0707 H         1 UNK         0.0769 
    122 H122       33.8880   35.1382    4.0348 H         1 UNK         0.0811 
    123 H123       34.7435   36.1116    5.2224 H         1 UNK         0.0811 
    124 H124       32.9887   36.0949    5.2141 H         1 UNK         0.0811 
    125 H125       34.3150   32.1406    4.6781 H         1 UNK         0.3204 
    126 H126       37.2343   31.9500    5.2741 H         1 UNK         0.0748 
    127 H127       36.6284   31.9481    2.8626 H         1 UNK         0.0771 
    128 H128       37.2660   30.3850    3.3476 H         1 UNK         0.0771 
    129 H129       35.5360   30.5882    3.1117 H         1 UNK         0.0771 
    130 H130       34.1641   30.0504    5.2037 H         1 UNK         0.2980 
    131 H131       35.3581   27.7362    6.3825 H         1 UNK         0.0545 
    132 H132       34.0784   29.7976    9.6283 H         1 UNK         0.3459 
    133 H133       33.9706   30.5699    8.0691 H         1 UNK         0.3459 
    134 H134       32.9849   26.8624    6.4748 H         1 UNK         0.0616 
    135 H135       32.4216   28.4255    5.9217 H         1 UNK         0.0616 
    136 H136       31.2973   27.7617    3.6761 H         1 UNK         0.0634 
    137 H137       31.4349   26.1337    4.3082 H         1 UNK         0.0634 
@<TRIPOS>BOND
     1    1    2 1    
     2    1   72 1    
     3    1   73 1    
     4    1   74 1    
     5    2    3 2    
     6    2    4 am   BACKBONE|DICT|INTERRES
     7    4    5 1    
     8    4   75 1    
     9    5    6 1    
    10    5   35 1    
    11    5   76 1    
    12    6    7 1    
    13    6   77 1    
    14    6   78 1    
    15    7    8 1    
    16    8    9 1    
    17    8   79 1    
    18    8   80 1    
    19    9   10 ar   
    20    9   14 ar   
    21   10   11 ar   
    22   10   81 1    
    23   11   12 ar   
    24   11   71 1    
    25   12   13 ar   
    26   12   82 1    
    27   13   14 ar   
    28   13   15 1    
    29   14   83 1    
    30   15   16 1    
    31   15   84 1    
    32   15   85 1    
    33   16   17 1    
    34   17   18 1    
    35   17   86 1    
    36   17   87 1    
    37   18   19 1    
    38   18   37 1    
    39   18   88 1    
    40   19   20 am   BACKBONE|DICT|INTERRES
    41   19   89 1    
    42   20   21 2    
    43   20   22 1    
    44   22   23 1    
    45   22   24 1    
    46   22   90 1    
    47   23   91 1    
    48   23   92 1    
    49   23   93 1    
    50   24   25 am   BACKBONE|DICT|INTERRES
    51   24   94 1    
    52   25   26 2    
    53   25   27 1    
    54   27   28 1    
    55   27   29 1    
    56   27   95 1    
    57   28   96 1    
    58   28   97 1    
    59   28   98 1    
    60   29   30 am   BACKBONE|DICT|INTERRES
    61   29   99 1    
    62   30   31 2    
    63   30   32 1    
    64   32   33 1    
    65   32   34 1    
    66   32  100 1    
    67   33  101 1    
    68   33  102 1    
    69   33  103 1    
    70   34   35 am   BACKBONE|DICT|INTERRES
    71   34  104 1    
    72   35   36 2    
    73   37   38 2    
    74   37   39 am   BACKBONE|DICT|INTERRES
    75   39   40 1    
    76   39  105 1    
    77   40   41 1    
    78   40   42 1    
    79   40  106 1    
    80   41  107 1    
    81   41  108 1    
    82   41  109 1    
    83   42   43 2    
    84   42   44 am   BACKBONE|DICT|INTERRES
    85   44   45 1    
    86   44  110 1    
    87   45   46 1    
    88   45   47 1    
    89   45  111 1    
    90   46  112 1    
    91   46  113 1    
    92   46  114 1    
    93   47   48 2    
    94   47   49 am   BACKBONE|DICT|INTERRES
    95   49   50 1    
    96   49  115 1    
    97   50   51 1    
    98   50   52 1    
    99   50  116 1    
   100   51  117 1    
   101   51  118 1    
   102   51  119 1    
   103   52   53 2    
   104   52   54 am   BACKBONE|DICT|INTERRES
   105   54   55 1    
   106   54  120 1    
   107   55   56 1    
   108   55   57 1    
   109   55  121 1    
   110   56  122 1    
   111   56  123 1    
   112   56  124 1    
   113   57   58 2    
   114   57   59 am   BACKBONE|DICT|INTERRES
   115   59   60 1    
   116   59  125 1    
   117   60   61 1    
   118   60   62 1    
   119   60  126 1    
   120   61  127 1    
   121   61  128 1    
   122   61  129 1    
   123   62   63 2    
   124   62   64 am   BACKBONE|DICT|INTERRES
   125   64   65 1    
   126   64  130 1    
   127   65   66 1    
   128   65   69 1    
   129   65  131 1    
   130   66   67 am   BACKBONE|DICT|INTERRES
   131   66   68 2    
   132   67  132 1    
   133   67  133 1    
   134   69   70 1    
   135   69  134 1    
   136   69  135 1    
   137   70   71 1    
   138   71  136 1    
   139   71  137 1    
@<TRIPOS>SUBSTRUCTURE
     1 UNK         1 GROUP             0       ****    0 ROOT    
