@<TRIPOS>MOLECULE
3R136
137   139    1
SMALL
USER_CHARGES


@<TRIPOS>ATOM
      1 CA         32.0768   19.0822    2.4005 C.3       0 UNK        -0.1979 
      2 C          31.6950   20.4750    1.9218 C.2       0 UNK         0.4864 
      3 O          32.5398   21.3709    1.9112 O.2       0 UNK        -0.5359 
      4 N          30.4285   20.6652    1.5308 N.am      1 UNK        -0.4318 
      5 CA         29.8873   21.9250    1.0170 C.3       1 UNK         0.0824 
      6 C6         28.3382   21.9418    1.0442 C.3       12 UNK        -0.0944 
      7 S7         27.6512   21.8738    2.7329 S.3       12 UNK        -0.2672 
      8 C8         26.9062   23.5283    2.9013 C.3       12 UNK         0.0333 
      9 C9         27.8843   24.5375    3.4854 C.ar      12 UNK        -0.0807 
     10 C10        28.8677   25.1225    2.6839 C.ar      12 UNK        -0.0894 
     11 C11        29.7556   26.0626    3.2163 C.ar      12 UNK        -0.0804 
     12 C12        29.6485   26.4232    4.5627 C.ar      12 UNK        -0.0824 
     13 C13        28.6455   25.8727    5.3652 C.ar      12 UNK        -0.0762 
     14 C14        27.7806   24.9152    4.8265 C.ar      12 UNK        -0.0782 
     15 C15        28.4618   26.3413    6.8031 C.3       12 UNK         0.0230 
     16 S16        27.9211   28.0843    6.9158 S.3       12 UNK        -0.2608 
     17 C17        26.5900   28.1913    5.6663 C.3       12 UNK        -0.0989 
     18 CA         27.0859   28.9476    4.4008 C.3       5 UNK         0.0716 
     19 N          26.8214   28.2214    3.1568 N.am      5 UNK        -0.4135 
     20 C          27.4234   28.4840    1.9887 C.2       4 UNK         0.5031 
     21 O          28.2901   29.3544    1.8356 O.2       4 UNK        -0.5229 
     22 CA         26.9666   27.6376    0.7941 C.3       4 UNK         0.0329 
     23 CB         25.7348   28.2645    0.1203 C.3       4 UNK        -0.2001 
     24 N          28.0459   27.5183   -0.1875 N.am      4 UNK        -0.4303 
     25 C          28.3727   26.3911   -0.8336 C.2       3 UNK         0.5044 
     26 O          27.7820   25.3218   -0.6721 O.2       3 UNK        -0.5152 
     27 CA         29.5567   26.4294   -1.8158 C.3       3 UNK         0.0319 
     28 CB         30.3584   27.7453   -1.8307 C.3       3 UNK        -0.2001 
     29 N          30.4471   25.3176   -1.5000 N.am      3 UNK        -0.4354 
     30 C          31.1943   24.6241   -2.3668 C.2       2 UNK         0.4964 
     31 O          31.2466   24.8623   -3.5739 O.2       2 UNK        -0.5047 
     32 CA         32.0313   23.4654   -1.7889 C.3       2 UNK         0.0288 
     33 CB         33.4907   23.9043   -1.5838 C.3       2 UNK        -0.2113 
     34 N          31.4984   22.9623   -0.5185 N.am      2 UNK        -0.4145 
     35 C          30.4099   22.1900   -0.4095 C.2       1 UNK         0.5006 
     36 O          29.8216   21.7013   -1.3768 O.2       1 UNK        -0.5103 
     37 C          26.5287   30.3801    4.3264 C.2       5 UNK         0.5055 
     38 O          25.5212   30.6105    3.6523 O.2       5 UNK        -0.5220 
     39 N          27.2135   31.3143    4.9998 N.am      6 UNK        -0.4450 
     40 CA         26.9996   32.7706    5.0266 C.3       6 UNK         0.0367 
     41 CB         25.6105   33.1346    5.5868 C.3       6 UNK        -0.1929 
     42 C          27.2595   33.4773    3.6810 C.2       6 UNK         0.5070 
     43 O          27.8999   34.5282    3.6725 O.2       6 UNK        -0.5237 
     44 N          26.7767   32.8949    2.5761 N.am      7 UNK        -0.4739 
     45 CA         26.9689   33.3687    1.2045 C.3       7 UNK         0.0276 
     46 CB         26.0579   32.5718    0.2574 C.3       7 UNK        -0.1927 
     47 C          28.4348   33.2845    0.7503 C.2       7 UNK         0.5013 
     48 O          28.9396   34.2460    0.1689 O.2       7 UNK        -0.5193 
     49 N          29.0859   32.1505    1.0404 N.am      8 UNK        -0.4253 
     50 CA         30.5144   31.9304    0.8121 C.3       8 UNK         0.0242 
     51 CB         30.7152   30.7823   -0.1859 C.3       8 UNK        -0.2000 
     52 C          31.2236   31.6296    2.1356 C.2       8 UNK         0.4948 
     53 O          32.2669   32.2263    2.4015 O.2       8 UNK        -0.5275 
     54 N          30.6539   30.7171    2.9407 N.am      9 UNK        -0.4246 
     55 CA         31.0633   30.3108    4.2976 C.3       9 UNK         0.0261 
     56 CB         30.9926   31.4998    5.2751 C.3       9 UNK        -0.1959 
     57 C          32.4263   29.5997    4.4163 C.2       9 UNK         0.5033 
     58 O          32.5461   28.6790    5.2255 O.2       9 UNK        -0.5390 
     59 N          33.4191   30.0034    3.6173 N.am      10 UNK        -0.4215 
     60 CA         34.8075   29.5293    3.6193 C.3       10 UNK         0.0240 
     61 CB         35.6788   30.5768    2.8996 C.3       10 UNK        -0.1982 
     62 C          35.0078   28.1040    3.0538 C.2       10 UNK         0.4970 
     63 O          35.9302   27.8835    2.2665 O.2       10 UNK        -0.4916 
     64 N          34.1645   27.1574    3.4784 N.am      11 UNK        -0.4279 
     65 CA         34.2976   25.7179    3.1974 C.3       11 UNK         0.1003 
     66 C          35.2371   24.9780    4.1945 C.2       11 UNK         0.5709 
     67 N          35.6826   25.5975    5.2822 N.am      11 UNK        -0.7358 
     68 O          35.5858   23.8220    3.9678 O.2       11 UNK        -0.4999 
     69 C69        32.9141   25.0231    3.1059 C.3       12 UNK        -0.0954 
     70 S70        31.9813   25.5452    1.6298 S.3       12 UNK        -0.2268 
     71 C71        30.7942   26.7286    2.3263 C.3       12 UNK         0.0203 
     72 H72        32.8713   18.6759    1.7751 H         1 UNK         0.0888 
     73 H73        32.4392   19.1255    3.4272 H         1 UNK         0.0888 
     74 H74        31.2327   18.3936    2.3675 H         1 UNK         0.0888 
     75 H75        29.7783   19.8928    1.5573 H         1 UNK         0.3017 
     76 H76        30.2407   22.7325    1.6624 H         1 UNK         0.0873 
     77 H77        27.9591   22.8304    0.5367 H         1 UNK         0.0745 
     78 H78        27.9362   21.0935    0.4866 H         1 UNK         0.0745 
     79 H79        26.0308   23.4412    3.5467 H         1 UNK         0.0705 
     80 H80        26.5284   23.8835    1.9414 H         1 UNK         0.0705 
     81 H81        28.9390   24.8486    1.6424 H         1 UNK         0.1334 
     82 H82        30.3187   27.1600    4.9828 H         1 UNK         0.1417 
     83 H83        27.0072   24.4815    5.4460 H         1 UNK         0.1562 
     84 H84        29.4027   26.2262    7.3430 H         1 UNK         0.0748 
     85 H85        27.7336   25.7165    7.3227 H         1 UNK         0.0748 
     86 H86        25.7256   28.6754    6.1265 H         1 UNK         0.0940 
     87 H87        26.2422   27.1874    5.4228 H         1 UNK         0.0940 
     88 H88        28.1709   29.0350    4.4473 H         1 UNK         0.0703 
     89 H89        26.0922   27.5254    3.1888 H         1 UNK         0.3081 
     90 H90        26.6970   26.6502    1.1752 H         1 UNK         0.0719 
     91 H91        25.9693   29.2295   -0.3288 H         1 UNK         0.0809 
     92 H92        25.3468   27.6178   -0.6669 H         1 UNK         0.0809 
     93 H93        24.9273   28.4230    0.8365 H         1 UNK         0.0809 
     94 H94        28.6057   28.3501   -0.3128 H         1 UNK         0.2990 
     95 H95        29.1298   26.2749   -2.8089 H         1 UNK         0.0690 
     96 H96        31.1216   27.7245   -2.6090 H         1 UNK         0.0788 
     97 H97        30.8700   27.9108   -0.8829 H         1 UNK         0.0788 
     98 H98        29.7212   28.6046   -2.0416 H         1 UNK         0.0788 
     99 H99        30.4515   25.0284   -0.5326 H         1 UNK         0.2993 
    100 H100       32.0171   22.6531   -2.5192 H         1 UNK         0.0949 
    101 H101       33.5711   24.7281   -0.8737 H         1 UNK         0.0767 
    102 H102       34.1040   23.0819   -1.2147 H         1 UNK         0.0767 
    103 H103       33.9317   24.2407   -2.5232 H         1 UNK         0.0767 
    104 H104       31.9707   23.2594    0.3263 H         1 UNK         0.3013 
    105 H105       28.0097   30.9999    5.5367 H         1 UNK         0.3121 
    106 H106       27.7401   33.1605    5.7271 H         1 UNK         0.0774 
    107 H107       25.5126   34.2144    5.7060 H         1 UNK         0.0815 
    108 H108       24.8035   32.8099    4.9296 H         1 UNK         0.0815 
    109 H109       25.4475   32.6847    6.5660 H         1 UNK         0.0815 
    110 H110       26.2361   32.0425    2.7058 H         1 UNK         0.2987 
    111 H111       26.6696   34.4185    1.1672 H         1 UNK         0.0949 
    112 H112       26.1760   32.9076   -0.7738 H         1 UNK         0.0806 
    113 H113       26.2857   31.5062    0.2832 H         1 UNK         0.0806 
    114 H114       25.0073   32.6958    0.5203 H         1 UNK         0.0806 
    115 H115       28.5782   31.4014    1.4968 H         1 UNK         0.3010 
    116 H116       30.9785   32.8260    0.3932 H         1 UNK         0.0829 
    117 H117       30.2890   29.8537    0.1886 H         1 UNK         0.0813 
    118 H118       30.2476   31.0067   -1.1446 H         1 UNK         0.0813 
    119 H119       31.7752   30.6056   -0.3735 H         1 UNK         0.0813 
    120 H120       29.8399   30.2270    2.5773 H         1 UNK         0.3038 
    121 H121       30.3218   29.5822    4.6205 H         1 UNK         0.0769 
    122 H122       31.7646   32.2417    5.0680 H         1 UNK         0.0811 
    123 H123       31.1342   31.1662    6.3041 H         1 UNK         0.0811 
    124 H124       30.0297   32.0054    5.2249 H         1 UNK         0.0811 
    125 H125       33.2074   30.7933    3.0100 H         1 UNK         0.3204 
    126 H126       35.1380   29.4915    4.6593 H         1 UNK         0.0748 
    127 H127       36.7365   30.3143    2.9499 H         1 UNK         0.0771 
    128 H128       35.4115   30.6647    1.8457 H         1 UNK         0.0771 
    129 H129       35.5726   31.5618    3.3548 H         1 UNK         0.0771 
    130 H130       33.4552   27.4301    4.1531 H         1 UNK         0.2980 
    131 H131       34.7765   25.6038    2.2229 H         1 UNK         0.0545 
    132 H132       35.4042   26.5436    5.4853 H         1 UNK         0.3459 
    133 H133       36.2963   25.1052    5.9120 H         1 UNK         0.3459 
    134 H134       32.3299   25.2003    4.0100 H         1 UNK         0.0616 
    135 H135       33.0286   23.9402    3.0299 H         1 UNK         0.0616 
    136 H136       31.3409   27.4975    2.8678 H         1 UNK         0.0634 
    137 H137       30.2883   27.2396    1.5085 H         1 UNK         0.0634 
@<TRIPOS>BOND
     1    1    2 1    
     2    1   72 1    
     3    1   73 1    
     4    1   74 1    
     5    2    3 2    
     6    2    4 am   BACKBONE|DICT|INTERRES
     7    4    5 1    
     8    4   75 1    
     9    5    6 1    
    10    5   35 1    
    11    5   76 1    
    12    6    7 1    
    13    6   77 1    
    14    6   78 1    
    15    7    8 1    
    16    8    9 1    
    17    8   79 1    
    18    8   80 1    
    19    9   10 ar   
    20    9   14 ar   
    21   10   11 ar   
    22   10   81 1    
    23   11   12 ar   
    24   11   71 1    
    25   12   13 ar   
    26   12   82 1    
    27   13   14 ar   
    28   13   15 1    
    29   14   83 1    
    30   15   16 1    
    31   15   84 1    
    32   15   85 1    
    33   16   17 1    
    34   17   18 1    
    35   17   86 1    
    36   17   87 1    
    37   18   19 1    
    38   18   37 1    
    39   18   88 1    
    40   19   20 am   BACKBONE|DICT|INTERRES
    41   19   89 1    
    42   20   21 2    
    43   20   22 1    
    44   22   23 1    
    45   22   24 1    
    46   22   90 1    
    47   23   91 1    
    48   23   92 1    
    49   23   93 1    
    50   24   25 am   BACKBONE|DICT|INTERRES
    51   24   94 1    
    52   25   26 2    
    53   25   27 1    
    54   27   28 1    
    55   27   29 1    
    56   27   95 1    
    57   28   96 1    
    58   28   97 1    
    59   28   98 1    
    60   29   30 am   BACKBONE|DICT|INTERRES
    61   29   99 1    
    62   30   31 2    
    63   30   32 1    
    64   32   33 1    
    65   32   34 1    
    66   32  100 1    
    67   33  101 1    
    68   33  102 1    
    69   33  103 1    
    70   34   35 am   BACKBONE|DICT|INTERRES
    71   34  104 1    
    72   35   36 2    
    73   37   38 2    
    74   37   39 am   BACKBONE|DICT|INTERRES
    75   39   40 1    
    76   39  105 1    
    77   40   41 1    
    78   40   42 1    
    79   40  106 1    
    80   41  107 1    
    81   41  108 1    
    82   41  109 1    
    83   42   43 2    
    84   42   44 am   BACKBONE|DICT|INTERRES
    85   44   45 1    
    86   44  110 1    
    87   45   46 1    
    88   45   47 1    
    89   45  111 1    
    90   46  112 1    
    91   46  113 1    
    92   46  114 1    
    93   47   48 2    
    94   47   49 am   BACKBONE|DICT|INTERRES
    95   49   50 1    
    96   49  115 1    
    97   50   51 1    
    98   50   52 1    
    99   50  116 1    
   100   51  117 1    
   101   51  118 1    
   102   51  119 1    
   103   52   53 2    
   104   52   54 am   BACKBONE|DICT|INTERRES
   105   54   55 1    
   106   54  120 1    
   107   55   56 1    
   108   55   57 1    
   109   55  121 1    
   110   56  122 1    
   111   56  123 1    
   112   56  124 1    
   113   57   58 2    
   114   57   59 am   BACKBONE|DICT|INTERRES
   115   59   60 1    
   116   59  125 1    
   117   60   61 1    
   118   60   62 1    
   119   60  126 1    
   120   61  127 1    
   121   61  128 1    
   122   61  129 1    
   123   62   63 2    
   124   62   64 am   BACKBONE|DICT|INTERRES
   125   64   65 1    
   126   64  130 1    
   127   65   66 1    
   128   65   69 1    
   129   65  131 1    
   130   66   67 am   BACKBONE|DICT|INTERRES
   131   66   68 2    
   132   67  132 1    
   133   67  133 1    
   134   69   70 1    
   135   69  134 1    
   136   69  135 1    
   137   70   71 1    
   138   71  136 1    
   139   71  137 1    
@<TRIPOS>SUBSTRUCTURE
     1 UNK         1 GROUP             0       ****    0 ROOT    
