@<TRIPOS>MOLECULE
3R136
137   139    1
SMALL
USER_CHARGES


@<TRIPOS>ATOM
      1 CA         27.8395   20.4468    3.1909 C.3       0 UNK        -0.1979 
      2 C          28.1858   20.5906    1.7173 C.2       0 UNK         0.4864 
      3 O          27.7238   19.7959    0.8964 O.2       0 UNK        -0.5359 
      4 N          28.9834   21.6075    1.3661 N.am      1 UNK        -0.4318 
      5 CA         29.4472   21.8964    0.0024 C.3       1 UNK         0.0824 
      6 C6         30.8229   22.6170   -0.0047 C.3       12 UNK        -0.0944 
      7 S7         32.1285   21.6076    0.7811 S.3       12 UNK        -0.2672 
      8 C8         33.2156   22.8750    1.5317 C.3       12 UNK         0.0333 
      9 C9         32.5768   23.7473    2.6154 C.ar      12 UNK        -0.0807 
     10 C10        33.1502   24.9903    2.9033 C.ar      12 UNK        -0.0894 
     11 C11        32.5830   25.8355    3.8621 C.ar      12 UNK        -0.0804 
     12 C12        31.4281   25.4349    4.5377 C.ar      12 UNK        -0.0824 
     13 C13        30.8377   24.2020    4.2548 C.ar      12 UNK        -0.0762 
     14 C14        31.4368   23.3491    3.3242 C.ar      12 UNK        -0.0782 
     15 C15        29.5303   23.7989    4.9148 C.3       12 UNK         0.0230 
     16 S16        28.1354   24.0804    3.7748 S.3       12 UNK        -0.2608 
     17 C17        27.5191   25.7179    4.2951 C.3       12 UNK        -0.0989 
     18 CA         28.2082   26.9202    3.6008 C.3       5 UNK         0.0716 
     19 N          28.2091   26.8120    2.1369 N.am      5 UNK        -0.4135 
     20 C          28.7748   27.6874    1.2911 C.2       4 UNK         0.5031 
     21 O          29.3636   28.7061    1.6499 O.2       4 UNK        -0.5229 
     22 CA         28.5963   27.4317   -0.2138 C.3       4 UNK         0.0329 
     23 CB         29.8308   26.7131   -0.7782 C.3       4 UNK        -0.2001 
     24 N          27.3716   26.7003   -0.5700 N.am      4 UNK        -0.4303 
     25 C          26.1239   27.1243   -0.3005 C.2       3 UNK         0.5044 
     26 O          25.8815   28.1200    0.3834 O.2       3 UNK        -0.5152 
     27 CA         24.9375   26.3360   -0.8875 C.3       3 UNK         0.0319 
     28 CB         24.2528   27.1516   -1.9969 C.3       3 UNK        -0.2001 
     29 N          25.2972   25.0220   -1.4230 N.am      3 UNK        -0.4354 
     30 C          25.5422   23.9367   -0.6790 C.2       2 UNK         0.4964 
     31 O          25.4812   23.9280    0.5518 O.2       2 UNK        -0.5047 
     32 CA         25.9313   22.6413   -1.4213 C.3       2 UNK         0.0288 
     33 CB         26.0373   22.7859   -2.9581 C.3       2 UNK        -0.2113 
     34 N          27.1643   22.0712   -0.8710 N.am      2 UNK        -0.4145 
     35 C          28.3600   22.6714   -0.7737 C.2       1 UNK         0.5006 
     36 O          28.5993   23.7900   -1.2331 O.2       1 UNK        -0.5103 
     37 C          27.6027   28.2411    4.1259 C.2       5 UNK         0.5055 
     38 O          27.9826   28.6802    5.2123 O.2       5 UNK        -0.5220 
     39 N          26.7095   28.8745    3.3472 N.am      6 UNK        -0.4450 
     40 CA         26.1196   30.1838    3.6428 C.3       6 UNK         0.0367 
     41 CB         25.0190   30.4861    2.6137 C.3       6 UNK        -0.1929 
     42 C          27.1420   31.3371    3.6890 C.2       6 UNK         0.5070 
     43 O          26.8560   32.3609    4.3100 O.2       6 UNK        -0.5237 
     44 N          28.3139   31.1582    3.0606 N.am      7 UNK        -0.4739 
     45 CA         29.4286   32.1080    3.1004 C.3       7 UNK         0.0276 
     46 CB         30.2834   31.9215    1.8405 C.3       7 UNK        -0.1927 
     47 C          30.2948   31.9804    4.3691 C.2       7 UNK         0.5013 
     48 O          31.2131   32.7871    4.5394 O.2       7 UNK        -0.5193 
     49 N          30.0103   30.9802    5.2211 N.am      8 UNK        -0.4253 
     50 CA         30.5890   30.6688    6.5380 C.3       8 UNK         0.0242 
     51 CB         30.3041   31.7992    7.5455 C.3       8 UNK        -0.2000 
     52 C          32.0830   30.2974    6.5412 C.2       8 UNK         0.4948 
     53 O          32.4560   29.3062    7.1695 O.2       8 UNK        -0.5275 
     54 N          32.9019   31.0983    5.8575 N.am      9 UNK        -0.4246 
     55 CA         34.3432   30.9253    5.6945 C.3       9 UNK         0.0261 
     56 CB         35.0916   31.7147    6.7816 C.3       9 UNK        -0.1959 
     57 C          34.8174   31.3345    4.2926 C.2       9 UNK         0.5033 
     58 O          35.7916   30.7581    3.8077 O.2       9 UNK        -0.5390 
     59 N          34.1267   32.2780    3.6317 N.am      10 UNK        -0.4215 
     60 CA         34.4386   32.7520    2.2757 C.3       10 UNK         0.0240 
     61 CB         33.9569   34.2090    2.1393 C.3       10 UNK        -0.1982 
     62 C          33.8477   31.8274    1.1898 C.2       10 UNK         0.4970 
     63 O          33.2650   32.3070    0.2163 O.2       10 UNK        -0.4916 
     64 N          33.9722   30.5148    1.4036 N.am      11 UNK        -0.4279 
     65 CA         33.2977   29.4500    0.6473 C.3       11 UNK         0.1003 
     66 C          33.9215   29.1332   -0.7419 C.2       11 UNK         0.5709 
     67 N          35.0736   29.6891   -1.0982 N.am      11 UNK        -0.7358 
     68 O          33.3443   28.3734   -1.5155 O.2       11 UNK        -0.4999 
     69 C69        33.1499   28.1666    1.5065 C.3       12 UNK        -0.0954 
     70 S70        32.4067   28.4881    3.1452 S.3       12 UNK        -0.2268 
     71 C71        33.1940   27.1966    4.1520 C.3       12 UNK         0.0203 
     72 H72        27.7955   19.3942    3.4691 H         1 UNK         0.0888 
     73 H73        28.5817   20.9288    3.8258 H         1 UNK         0.0888 
     74 H74        26.8679   20.8963    3.3941 H         1 UNK         0.0888 
     75 H75        29.2547   22.2827    2.0657 H         1 UNK         0.3017 
     76 H76        29.5809   20.9499   -0.5264 H         1 UNK         0.0873 
     77 H77        31.1395   22.8301   -1.0274 H         1 UNK         0.0745 
     78 H78        30.7491   23.5819    0.4991 H         1 UNK         0.0745 
     79 H79        34.0814   22.3714    1.9634 H         1 UNK         0.0705 
     80 H80        33.5957   23.5090    0.7289 H         1 UNK         0.0705 
     81 H81        34.0354   25.3081    2.3695 H         1 UNK         0.1334 
     82 H82        30.9768   26.0969    5.2641 H         1 UNK         0.1417 
     83 H83        30.9913   22.3844    3.1357 H         1 UNK         0.1562 
     84 H84        29.3801   24.3384    5.8509 H         1 UNK         0.0748 
     85 H85        29.5672   22.7415    5.1799 H         1 UNK         0.0748 
     86 H86        27.6095   25.7989    5.3802 H         1 UNK         0.0940 
     87 H87        26.4468   25.7340    4.0888 H         1 UNK         0.0940 
     88 H88        29.2558   26.9335    3.8995 H         1 UNK         0.0703 
     89 H89        27.7434   26.0032    1.7511 H         1 UNK         0.3081 
     90 H90        28.5289   28.4084   -0.6976 H         1 UNK         0.0719 
     91 H91        30.7222   27.3312   -0.6646 H         1 UNK         0.0809 
     92 H92        30.0222   25.7742   -0.2592 H         1 UNK         0.0809 
     93 H93        29.7214   26.4966   -1.8408 H         1 UNK         0.0809 
     94 H94        27.4945   25.8415   -1.0922 H         1 UNK         0.2990 
     95 H95        24.2163   26.1940   -0.0797 H         1 UNK         0.0690 
     96 H96        23.9327   28.1263   -1.6254 H         1 UNK         0.0788 
     97 H97        23.3640   26.6440   -2.3724 H         1 UNK         0.0788 
     98 H98        24.9217   27.3286   -2.8402 H         1 UNK         0.0788 
     99 H99        25.3841   24.9458   -2.4265 H         1 UNK         0.2993 
    100 H100       25.1375   21.9236   -1.2090 H         1 UNK         0.0949 
    101 H101       26.2942   21.8323   -3.4199 H         1 UNK         0.0767 
    102 H102       25.0883   23.1002   -3.3944 H         1 UNK         0.0767 
    103 H103       26.7998   23.5070   -3.2554 H         1 UNK         0.0767 
    104 H104       27.0722   21.1715   -0.4080 H         1 UNK         0.3013 
    105 H105       26.4725   28.4699    2.4475 H         1 UNK         0.3121 
    106 H106       25.6575   30.1215    4.6303 H         1 UNK         0.0774 
    107 H107       24.5198   31.4291    2.8409 H         1 UNK         0.0815 
    108 H108       25.4242   30.5670    1.6042 H         1 UNK         0.0815 
    109 H109       24.2549   29.7086    2.6067 H         1 UNK         0.0815 
    110 H110       28.4910   30.2818    2.5765 H         1 UNK         0.2987 
    111 H111       29.0267   33.1234    3.0866 H         1 UNK         0.0949 
    112 H112       30.8108   30.9679    1.8544 H         1 UNK         0.0806 
    113 H113       29.6796   31.9595    0.9340 H         1 UNK         0.0806 
    114 H114       31.0306   32.7107    1.7626 H         1 UNK         0.0806 
    115 H115       29.2630   30.3512    4.9474 H         1 UNK         0.3010 
    116 H116       30.0527   29.7831    6.8832 H         1 UNK         0.0829 
    117 H117       30.7928   32.7322    7.2628 H         1 UNK         0.0813 
    118 H118       29.2347   31.9937    7.6285 H         1 UNK         0.0813 
    119 H119       30.6633   31.5338    8.5407 H         1 UNK         0.0813 
    120 H120       32.4534   31.8694    5.3673 H         1 UNK         0.3038 
    121 H121       34.5865   29.8662    5.8062 H         1 UNK         0.0769 
    122 H122       34.8669   32.7808    6.7320 H         1 UNK         0.0811 
    123 H123       36.1713   31.6011    6.6743 H         1 UNK         0.0811 
    124 H124       34.8267   31.3624    7.7787 H         1 UNK         0.0811 
    125 H125       33.2982   32.6796    4.0525 H         1 UNK         0.3204 
    126 H126       35.5219   32.7497    2.1375 H         1 UNK         0.0748 
    127 H127       34.2128   34.6190    1.1613 H         1 UNK         0.0771 
    128 H128       32.8756   34.2900    2.2565 H         1 UNK         0.0771 
    129 H129       34.4228   34.8510    2.8871 H         1 UNK         0.0771 
    130 H130       34.5042   30.2172    2.2119 H         1 UNK         0.2980 
    131 H131       32.2880   29.8027    0.4304 H         1 UNK         0.0545 
    132 H132       35.4649   29.4794   -2.0028 H         1 UNK         0.3459 
    133 H133       35.5499   30.3189   -0.4732 H         1 UNK         0.3459 
    134 H134       34.1273   27.7018    1.6447 H         1 UNK         0.0616 
    135 H135       32.5263   27.4298    0.9977 H         1 UNK         0.0616 
    136 H136       34.2707   27.1881    3.9765 H         1 UNK         0.0634 
    137 H137       33.0602   27.4434    5.2059 H         1 UNK         0.0634 
@<TRIPOS>BOND
     1    1    2 1    
     2    1   72 1    
     3    1   73 1    
     4    1   74 1    
     5    2    3 2    
     6    2    4 am   BACKBONE|DICT|INTERRES
     7    4    5 1    
     8    4   75 1    
     9    5    6 1    
    10    5   35 1    
    11    5   76 1    
    12    6    7 1    
    13    6   77 1    
    14    6   78 1    
    15    7    8 1    
    16    8    9 1    
    17    8   79 1    
    18    8   80 1    
    19    9   10 ar   
    20    9   14 ar   
    21   10   11 ar   
    22   10   81 1    
    23   11   12 ar   
    24   11   71 1    
    25   12   13 ar   
    26   12   82 1    
    27   13   14 ar   
    28   13   15 1    
    29   14   83 1    
    30   15   16 1    
    31   15   84 1    
    32   15   85 1    
    33   16   17 1    
    34   17   18 1    
    35   17   86 1    
    36   17   87 1    
    37   18   19 1    
    38   18   37 1    
    39   18   88 1    
    40   19   20 am   BACKBONE|DICT|INTERRES
    41   19   89 1    
    42   20   21 2    
    43   20   22 1    
    44   22   23 1    
    45   22   24 1    
    46   22   90 1    
    47   23   91 1    
    48   23   92 1    
    49   23   93 1    
    50   24   25 am   BACKBONE|DICT|INTERRES
    51   24   94 1    
    52   25   26 2    
    53   25   27 1    
    54   27   28 1    
    55   27   29 1    
    56   27   95 1    
    57   28   96 1    
    58   28   97 1    
    59   28   98 1    
    60   29   30 am   BACKBONE|DICT|INTERRES
    61   29   99 1    
    62   30   31 2    
    63   30   32 1    
    64   32   33 1    
    65   32   34 1    
    66   32  100 1    
    67   33  101 1    
    68   33  102 1    
    69   33  103 1    
    70   34   35 am   BACKBONE|DICT|INTERRES
    71   34  104 1    
    72   35   36 2    
    73   37   38 2    
    74   37   39 am   BACKBONE|DICT|INTERRES
    75   39   40 1    
    76   39  105 1    
    77   40   41 1    
    78   40   42 1    
    79   40  106 1    
    80   41  107 1    
    81   41  108 1    
    82   41  109 1    
    83   42   43 2    
    84   42   44 am   BACKBONE|DICT|INTERRES
    85   44   45 1    
    86   44  110 1    
    87   45   46 1    
    88   45   47 1    
    89   45  111 1    
    90   46  112 1    
    91   46  113 1    
    92   46  114 1    
    93   47   48 2    
    94   47   49 am   BACKBONE|DICT|INTERRES
    95   49   50 1    
    96   49  115 1    
    97   50   51 1    
    98   50   52 1    
    99   50  116 1    
   100   51  117 1    
   101   51  118 1    
   102   51  119 1    
   103   52   53 2    
   104   52   54 am   BACKBONE|DICT|INTERRES
   105   54   55 1    
   106   54  120 1    
   107   55   56 1    
   108   55   57 1    
   109   55  121 1    
   110   56  122 1    
   111   56  123 1    
   112   56  124 1    
   113   57   58 2    
   114   57   59 am   BACKBONE|DICT|INTERRES
   115   59   60 1    
   116   59  125 1    
   117   60   61 1    
   118   60   62 1    
   119   60  126 1    
   120   61  127 1    
   121   61  128 1    
   122   61  129 1    
   123   62   63 2    
   124   62   64 am   BACKBONE|DICT|INTERRES
   125   64   65 1    
   126   64  130 1    
   127   65   66 1    
   128   65   69 1    
   129   65  131 1    
   130   66   67 am   BACKBONE|DICT|INTERRES
   131   66   68 2    
   132   67  132 1    
   133   67  133 1    
   134   69   70 1    
   135   69  134 1    
   136   69  135 1    
   137   70   71 1    
   138   71  136 1    
   139   71  137 1    
@<TRIPOS>SUBSTRUCTURE
     1 UNK         1 GROUP             0       ****    0 ROOT    
