@<TRIPOS>MOLECULE
3R136
137   139    1
SMALL
USER_CHARGES


@<TRIPOS>ATOM
      1 CA         27.6148   25.6539    5.4157 C.3       0 UNK        -0.1979 
      2 C          27.3612   24.3820    4.6210 C.2       0 UNK         0.4864 
      3 O          26.3123   23.7578    4.7837 O.2       0 UNK        -0.5359 
      4 N          28.3201   23.9963    3.7675 N.am      1 UNK        -0.4318 
      5 CA         28.2878   22.7956    2.9208 C.3       1 UNK         0.0824 
      6 C6         29.6268   22.5926    2.1721 C.3       12 UNK        -0.0944 
      7 S7         31.0548   22.4593    3.2984 S.3       12 UNK        -0.2672 
      8 C8         32.3931   22.0857    2.1218 C.3       12 UNK         0.0333 
      9 C9         32.7680   23.3030    1.2888 C.ar      12 UNK        -0.0807 
     10 C10        33.7137   24.2157    1.7649 C.ar      12 UNK        -0.0894 
     11 C11        34.0668   25.3343    1.0039 C.ar      12 UNK        -0.0804 
     12 C12        33.4511   25.5455   -0.2343 C.ar      12 UNK        -0.0824 
     13 C13        32.4933   24.6467   -0.7158 C.ar      12 UNK        -0.0762 
     14 C14        32.1736   23.5157    0.0415 C.ar      12 UNK        -0.0782 
     15 C15        31.8020   24.9023   -2.0511 C.3       12 UNK         0.0230 
     16 S16        29.9835   24.9802   -1.9033 S.3       12 UNK        -0.2608 
     17 C17        29.7531   26.3749   -0.7516 C.3       12 UNK        -0.0989 
     18 CA         29.2160   27.6504   -1.4470 C.3       5 UNK         0.0716 
     19 N          27.8981   27.4575   -2.0534 N.am      5 UNK        -0.4135 
     20 C          27.3998   28.2115   -3.0432 C.2       4 UNK         0.5031 
     21 O          28.0296   29.1025   -3.6146 O.2       4 UNK        -0.5229 
     22 CA         25.9473   27.9296   -3.4690 C.3       4 UNK         0.0329 
     23 CB         25.9087   26.8598   -4.5724 C.3       4 UNK        -0.2001 
     24 N          25.1001   27.5055   -2.3521 N.am      4 UNK        -0.4303 
     25 C          24.7247   28.2938   -1.3333 C.2       3 UNK         0.5044 
     26 O          24.9721   29.4977   -1.2684 O.2       3 UNK        -0.5152 
     27 CA         23.9715   27.6150   -0.1739 C.3       3 UNK         0.0319 
     28 CB         22.4524   27.7376   -0.3726 C.3       3 UNK        -0.2001 
     29 N          24.3280   26.2020    0.0071 N.am      3 UNK        -0.4354 
     30 C          25.5429   25.7685    0.3667 C.2       2 UNK         0.4964 
     31 O          26.5018   26.5139    0.5935 O.2       2 UNK        -0.5047 
     32 CA         25.7448   24.2531    0.4152 C.3       2 UNK         0.0288 
     33 CB         26.0971   23.7136   -0.9851 C.3       2 UNK        -0.2113 
     34 N          26.8272   23.9835    1.3525 N.am      2 UNK        -0.4145 
     35 C          27.1227   22.8033    1.9088 C.2       1 UNK         0.5006 
     36 O          26.5225   21.7555    1.6620 O.2       1 UNK        -0.5103 
     37 C          29.1763   28.8163   -0.4444 C.2       5 UNK         0.5055 
     38 O          30.0476   29.6849   -0.4973 O.2       5 UNK        -0.5220 
     39 N          28.1826   28.7858    0.4619 N.am      6 UNK        -0.4450 
     40 CA         28.0152   29.6719    1.6224 C.3       6 UNK         0.0367 
     41 CB         27.6682   31.1073    1.1760 C.3       6 UNK        -0.1929 
     42 C          29.2311   29.6067    2.5698 C.2       6 UNK         0.5070 
     43 O          29.7094   30.6368    3.0453 O.2       6 UNK        -0.5237 
     44 N          29.7309   28.3801    2.7889 N.am      7 UNK        -0.4739 
     45 CA         31.0068   28.0944    3.4513 C.3       7 UNK         0.0276 
     46 CB         31.3385   26.6002    3.3077 C.3       7 UNK        -0.1927 
     47 C          31.0799   28.5223    4.9241 C.2       7 UNK         0.5013 
     48 O          32.1741   28.8335    5.3944 O.2       7 UNK        -0.5193 
     49 N          29.9333   28.5510    5.6132 N.am      8 UNK        -0.4253 
     50 CA         29.7918   29.0508    6.9790 C.3       8 UNK         0.0242 
     51 CB         28.5855   28.3596    7.6406 C.3       8 UNK        -0.2000 
     52 C          29.5967   30.5807    6.9305 C.2       8 UNK         0.4948 
     53 O          28.5095   31.0076    6.5430 O.2       8 UNK        -0.5275 
     54 N          30.5774   31.4289    7.2739 N.am      9 UNK        -0.4246 
     55 CA         31.9564   31.1628    7.7009 C.3       9 UNK         0.0261 
     56 CB         32.1345   31.6548    9.1495 C.3       9 UNK        -0.1959 
     57 C          32.9530   31.8148    6.7256 C.2       9 UNK         0.5033 
     58 O          33.9849   32.3352    7.1533 O.2       9 UNK        -0.5390 
     59 N          32.6267   31.7775    5.4262 N.am      10 UNK        -0.4215 
     60 CA         33.4731   32.2576    4.3338 C.3       10 UNK         0.0240 
     61 CB         32.6382   32.3509    3.0469 C.3       10 UNK        -0.1982 
     62 C          34.7177   31.3850    4.0923 C.2       10 UNK         0.4970 
     63 O          35.7369   31.9240    3.6578 O.2       10 UNK        -0.4916 
     64 N          34.6242   30.0751    4.3598 N.am      11 UNK        -0.4279 
     65 CA         35.7133   29.1110    4.1329 C.3       11 UNK         0.1003 
     66 C          35.6901   27.8588    5.0540 C.2       11 UNK         0.5709 
     67 N          34.6430   27.6016    5.8278 N.am      11 UNK        -0.7358 
     68 O          36.6660   27.1129    5.0895 O.2       11 UNK        -0.4999 
     69 C69        35.8927   28.7550    2.6296 C.3       12 UNK        -0.0954 
     70 S70        34.4376   27.9379    1.8888 S.3       12 UNK        -0.2268 
     71 C71        35.1293   26.2997    1.5092 C.3       12 UNK         0.0203 
     72 H72        28.6737   25.9086    5.4406 H         1 UNK         0.0888 
     73 H73        27.0657   26.4872    4.9781 H         1 UNK         0.0888 
     74 H74        27.2786   25.5272    6.4446 H         1 UNK         0.0888 
     75 H75        29.1798   24.5216    3.7190 H         1 UNK         0.3017 
     76 H76        28.1313   21.9397    3.5810 H         1 UNK         0.0873 
     77 H77        29.5904   21.6871    1.5627 H         1 UNK         0.0745 
     78 H78        29.8023   23.4232    1.4860 H         1 UNK         0.0745 
     79 H79        33.2645   21.7402    2.6802 H         1 UNK         0.0705 
     80 H80        32.0973   21.2554    1.4786 H         1 UNK         0.0705 
     81 H81        34.1774   24.0506    2.7280 H         1 UNK         0.1334 
     82 H82        33.7166   26.4174   -0.8168 H         1 UNK         0.1417 
     83 H83        31.4401   22.8142   -0.3324 H         1 UNK         0.1562 
     84 H84        32.0655   24.1027   -2.7446 H         1 UNK         0.0748 
     85 H85        32.1560   25.8305   -2.5024 H         1 UNK         0.0748 
     86 H86        30.6983   26.5918   -0.2512 H         1 UNK         0.0940 
     87 H87        29.0751   26.0416    0.0350 H         1 UNK         0.0940 
     88 H88        29.9226   27.9201   -2.2354 H         1 UNK         0.0703 
     89 H89        27.3073   26.7594   -1.6279 H         1 UNK         0.3081 
     90 H90        25.5347   28.8560   -3.8748 H         1 UNK         0.0719 
     91 H91        26.2956   25.9016   -4.2229 H         1 UNK         0.0809 
     92 H92        24.8933   26.7008   -4.9362 H         1 UNK         0.0809 
     93 H93        26.5136   27.1621   -5.4285 H         1 UNK         0.0809 
     94 H94        24.8198   26.5362   -2.3324 H         1 UNK         0.2990 
     95 H95        24.2402   28.1459    0.7422 H         1 UNK         0.0690 
     96 H96        21.9065   27.3394    0.4829 H         1 UNK         0.0788 
     97 H97        22.1160   27.2065   -1.2640 H         1 UNK         0.0788 
     98 H98        22.1569   28.7819   -0.4848 H         1 UNK         0.0788 
     99 H99        23.5984   25.5254   -0.1693 H         1 UNK         0.2993 
    100 H100       24.8305   23.7815    0.7819 H         1 UNK         0.0949 
    101 H101       26.2285   22.6316   -0.9744 H         1 UNK         0.0767 
    102 H102       25.3059   23.9310   -1.7036 H         1 UNK         0.0767 
    103 H103       27.0187   24.1547   -1.3668 H         1 UNK         0.0767 
    104 H104       27.3402   24.8089    1.6331 H         1 UNK         0.3013 
    105 H105       27.5259   28.0076    0.4213 H         1 UNK         0.3121 
    106 H106       27.1641   29.2860    2.1856 H         1 UNK         0.0774 
    107 H107       27.4272   31.7347    2.0349 H         1 UNK         0.0815 
    108 H108       28.4983   31.5811    0.6513 H         1 UNK         0.0815 
    109 H109       26.8027   31.1163    0.5131 H         1 UNK         0.0815 
    110 H110       29.2637   27.6000    2.3525 H         1 UNK         0.2987 
    111 H111       31.7721   28.6650    2.9217 H         1 UNK         0.0949 
    112 H112       30.6099   25.9691    3.8140 H         1 UNK         0.0806 
    113 H113       31.3819   26.2979    2.2610 H         1 UNK         0.0806 
    114 H114       32.3150   26.3766    3.7407 H         1 UNK         0.0806 
    115 H115       29.0788   28.3598    5.1125 H         1 UNK         0.3010 
    116 H116       30.6591   28.7651    7.5695 H         1 UNK         0.0829 
    117 H117       28.7483   27.2859    7.7326 H         1 UNK         0.0813 
    118 H118       28.4211   28.7463    8.6473 H         1 UNK         0.0813 
    119 H119       27.6632   28.5122    7.0786 H         1 UNK         0.0813 
    120 H120       30.3636   32.4128    7.1864 H         1 UNK         0.3038 
    121 H121       32.2061   30.1055    7.6857 H         1 UNK         0.0769 
    122 H122       31.9811   32.7315    9.2315 H         1 UNK         0.0811 
    123 H123       33.1378   31.4378    9.5187 H         1 UNK         0.0811 
    124 H124       31.4319   31.1639    9.8232 H         1 UNK         0.0811 
    125 H125       31.7677   31.3140    5.1641 H         1 UNK         0.3204 
    126 H126       33.8167   33.2618    4.5917 H         1 UNK         0.0748 
    127 H127       33.2231   32.7819    2.2332 H         1 UNK         0.0771 
    128 H128       32.2976   31.3688    2.7157 H         1 UNK         0.0771 
    129 H129       31.7594   32.9815    3.1840 H         1 UNK         0.0771 
    130 H130       33.7550   29.6966    4.7213 H         1 UNK         0.2980 
    131 H131       36.6305   29.6177    4.4394 H         1 UNK         0.0545 
    132 H132       34.6756   26.7906    6.4236 H         1 UNK         0.3459 
    133 H133       33.7855   28.1427    5.7718 H         1 UNK         0.3459 
    134 H134       36.0876   29.6614    2.0554 H         1 UNK         0.0616 
    135 H135       36.7792   28.1340    2.4900 H         1 UNK         0.0616 
    136 H136       35.6122   25.9028    2.4037 H         1 UNK         0.0634 
    137 H137       35.9097   26.4053    0.7543 H         1 UNK         0.0634 
@<TRIPOS>BOND
     1    1    2 1    
     2    1   72 1    
     3    1   73 1    
     4    1   74 1    
     5    2    3 2    
     6    2    4 am   BACKBONE|DICT|INTERRES
     7    4    5 1    
     8    4   75 1    
     9    5    6 1    
    10    5   35 1    
    11    5   76 1    
    12    6    7 1    
    13    6   77 1    
    14    6   78 1    
    15    7    8 1    
    16    8    9 1    
    17    8   79 1    
    18    8   80 1    
    19    9   10 ar   
    20    9   14 ar   
    21   10   11 ar   
    22   10   81 1    
    23   11   12 ar   
    24   11   71 1    
    25   12   13 ar   
    26   12   82 1    
    27   13   14 ar   
    28   13   15 1    
    29   14   83 1    
    30   15   16 1    
    31   15   84 1    
    32   15   85 1    
    33   16   17 1    
    34   17   18 1    
    35   17   86 1    
    36   17   87 1    
    37   18   19 1    
    38   18   37 1    
    39   18   88 1    
    40   19   20 am   BACKBONE|DICT|INTERRES
    41   19   89 1    
    42   20   21 2    
    43   20   22 1    
    44   22   23 1    
    45   22   24 1    
    46   22   90 1    
    47   23   91 1    
    48   23   92 1    
    49   23   93 1    
    50   24   25 am   BACKBONE|DICT|INTERRES
    51   24   94 1    
    52   25   26 2    
    53   25   27 1    
    54   27   28 1    
    55   27   29 1    
    56   27   95 1    
    57   28   96 1    
    58   28   97 1    
    59   28   98 1    
    60   29   30 am   BACKBONE|DICT|INTERRES
    61   29   99 1    
    62   30   31 2    
    63   30   32 1    
    64   32   33 1    
    65   32   34 1    
    66   32  100 1    
    67   33  101 1    
    68   33  102 1    
    69   33  103 1    
    70   34   35 am   BACKBONE|DICT|INTERRES
    71   34  104 1    
    72   35   36 2    
    73   37   38 2    
    74   37   39 am   BACKBONE|DICT|INTERRES
    75   39   40 1    
    76   39  105 1    
    77   40   41 1    
    78   40   42 1    
    79   40  106 1    
    80   41  107 1    
    81   41  108 1    
    82   41  109 1    
    83   42   43 2    
    84   42   44 am   BACKBONE|DICT|INTERRES
    85   44   45 1    
    86   44  110 1    
    87   45   46 1    
    88   45   47 1    
    89   45  111 1    
    90   46  112 1    
    91   46  113 1    
    92   46  114 1    
    93   47   48 2    
    94   47   49 am   BACKBONE|DICT|INTERRES
    95   49   50 1    
    96   49  115 1    
    97   50   51 1    
    98   50   52 1    
    99   50  116 1    
   100   51  117 1    
   101   51  118 1    
   102   51  119 1    
   103   52   53 2    
   104   52   54 am   BACKBONE|DICT|INTERRES
   105   54   55 1    
   106   54  120 1    
   107   55   56 1    
   108   55   57 1    
   109   55  121 1    
   110   56  122 1    
   111   56  123 1    
   112   56  124 1    
   113   57   58 2    
   114   57   59 am   BACKBONE|DICT|INTERRES
   115   59   60 1    
   116   59  125 1    
   117   60   61 1    
   118   60   62 1    
   119   60  126 1    
   120   61  127 1    
   121   61  128 1    
   122   61  129 1    
   123   62   63 2    
   124   62   64 am   BACKBONE|DICT|INTERRES
   125   64   65 1    
   126   64  130 1    
   127   65   66 1    
   128   65   69 1    
   129   65  131 1    
   130   66   67 am   BACKBONE|DICT|INTERRES
   131   66   68 2    
   132   67  132 1    
   133   67  133 1    
   134   69   70 1    
   135   69  134 1    
   136   69  135 1    
   137   70   71 1    
   138   71  136 1    
   139   71  137 1    
@<TRIPOS>SUBSTRUCTURE
     1 UNK         1 GROUP             0       ****    0 ROOT    
