@<TRIPOS>MOLECULE
3R136
137   139    1
SMALL
USER_CHARGES


@<TRIPOS>ATOM
      1 CA         24.4255   28.2324    1.7182 C.3       0 UNK        -0.1979 
      2 C          24.9053   26.9000    2.2731 C.2       0 UNK         0.4864 
      3 O          24.0879   26.0650    2.6617 O.2       0 UNK        -0.5359 
      4 N          26.2256   26.6845    2.2882 N.am      1 UNK        -0.4318 
      5 CA         26.8996   25.4612    2.7251 C.3       1 UNK         0.0824 
      6 C6         28.4172   25.7137    2.8795 C.3       12 UNK        -0.0944 
      7 S7         29.2506   24.4932    3.9438 S.3       12 UNK        -0.2672 
      8 C8         30.5929   25.5023    4.6519 C.3       12 UNK         0.0333 
      9 C9         31.7287   25.7359    3.6622 C.ar      12 UNK        -0.0807 
     10 C10        32.9153   25.0012    3.7661 C.ar      12 UNK        -0.0894 
     11 C11        33.9821   25.2371    2.8917 C.ar      12 UNK        -0.0804 
     12 C12        33.8405   26.2020    1.8875 C.ar      12 UNK        -0.0824 
     13 C13        32.6660   26.9490    1.7765 C.ar      12 UNK        -0.0762 
     14 C14        31.6176   26.7187    2.6723 C.ar      12 UNK        -0.0782 
     15 C15        32.5488   28.0349    0.7162 C.3       12 UNK         0.0230 
     16 S16        32.1729   27.3864   -0.9458 S.3       12 UNK        -0.2608 
     17 C17        30.5815   26.5232   -0.7145 C.3       12 UNK        -0.0989 
     18 CA         29.3499   27.3147   -1.2296 C.3       5 UNK         0.0716 
     19 N          28.2592   26.4084   -1.5895 N.am      5 UNK        -0.4135 
     20 C          28.1200   25.8167   -2.7812 C.2       4 UNK         0.5031 
     21 O          28.8820   26.0171   -3.7284 O.2       4 UNK        -0.5229 
     22 CA         26.9640   24.8215   -2.9722 C.3       4 UNK         0.0329 
     23 CB         27.4992   23.3805   -2.9070 C.3       4 UNK        -0.2001 
     24 N          25.8990   24.9593   -1.9754 N.am      4 UNK        -0.4303 
     25 C          24.6258   25.2817   -2.2519 C.2       3 UNK         0.5044 
     26 O          24.2493   25.6504   -3.3659 O.2       3 UNK        -0.5152 
     27 CA         23.5873   25.1723   -1.1081 C.3       3 UNK         0.0319 
     28 CB         22.1899   24.7615   -1.6181 C.3       3 UNK        -0.2001 
     29 N          24.0036   24.3091    0.0058 N.am      3 UNK        -0.4354 
     30 C          24.3476   23.0098   -0.0410 C.2       2 UNK         0.4964 
     31 O          24.1926   22.2958   -1.0326 O.2       2 UNK        -0.5047 
     32 CA         25.0326   22.4281    1.2186 C.3       2 UNK         0.0288 
     33 CB         26.0536   21.3241    0.8686 C.3       2 UNK        -0.2113 
     34 N          25.6610   23.4494    2.0737 N.am      2 UNK        -0.4145 
     35 C          26.5925   24.3465    1.7096 C.2       1 UNK         0.5006 
     36 O          27.1052   24.3952    0.5876 O.2       1 UNK        -0.5103 
     37 C          28.8136   28.3248   -0.2008 C.2       5 UNK         0.5055 
     38 O          27.8641   28.0123    0.5214 O.2       5 UNK        -0.5220 
     39 N          29.4116   29.5208   -0.1492 N.am      6 UNK        -0.4450 
     40 CA         29.0325   30.5974    0.7683 C.3       6 UNK         0.0367 
     41 CB         29.7064   31.9061    0.3212 C.3       6 UNK        -0.1929 
     42 C          29.4082   30.2602    2.2205 C.2       6 UNK         0.5070 
     43 O          30.5912   30.2731    2.5587 O.2       6 UNK        -0.5237 
     44 N          28.4052   30.0000    3.0693 N.am      7 UNK        -0.4739 
     45 CA         28.5782   29.6482    4.4874 C.3       7 UNK         0.0276 
     46 CB         27.2168   29.2521    5.0807 C.3       7 UNK        -0.1927 
     47 C          29.2533   30.7378    5.3460 C.2       7 UNK         0.5013 
     48 O          29.7886   30.4227    6.4082 O.2       7 UNK        -0.5193 
     49 N          29.2483   31.9875    4.8628 N.am      8 UNK        -0.4253 
     50 CA         29.9873   33.1135    5.4377 C.3       8 UNK         0.0242 
     51 CB         29.4453   34.4218    4.8381 C.3       8 UNK        -0.2000 
     52 C          31.5140   33.0228    5.2331 C.2       8 UNK         0.4948 
     53 O          32.2464   33.7093    5.9465 O.2       8 UNK        -0.5275 
     54 N          31.9715   32.2003    4.2783 N.am      9 UNK        -0.4246 
     55 CA         33.3779   31.9934    3.9336 C.3       9 UNK         0.0261 
     56 CB         33.6390   32.5814    2.5336 C.3       9 UNK        -0.1959 
     57 C          33.7063   30.4948    4.0171 C.2       9 UNK         0.5033 
     58 O          34.2715   29.9311    3.0774 O.2       9 UNK        -0.5390 
     59 N          33.3258   29.8677    5.1392 N.am      10 UNK        -0.4215 
     60 CA         33.4001   28.4253    5.3855 C.3       10 UNK         0.0240 
     61 CB         32.4408   28.0588    6.5331 C.3       10 UNK        -0.1982 
     62 C          34.8255   27.8825    5.6053 C.2       10 UNK         0.4970 
     63 O          35.1162   27.3424    6.6743 O.2       10 UNK        -0.4916 
     64 N          35.6840   28.0356    4.5898 N.am      11 UNK        -0.4279 
     65 CA         37.0773   27.5589    4.5390 C.3       11 UNK         0.1003 
     66 C          38.0257   28.1862    5.6108 C.2       11 UNK         0.5709 
     67 N          37.6850   29.3207    6.2115 N.am      11 UNK        -0.7358 
     68 O          39.1079   27.6674    5.8762 O.2       11 UNK        -0.4999 
     69 C69        37.1642   26.0030    4.4576 C.3       12 UNK        -0.0954 
     70 S70        36.7938   25.3759    2.7840 S.3       12 UNK        -0.2268 
     71 C71        35.2598   24.4103    3.0105 C.3       12 UNK         0.0203 
     72 H72        25.2343   28.7902    1.2461 H         1 UNK         0.0888 
     73 H73        23.6457   28.0743    0.9742 H         1 UNK         0.0888 
     74 H74        24.0119   28.8432    2.5201 H         1 UNK         0.0888 
     75 H75        26.8325   27.3492    1.8092 H         1 UNK         0.3017 
     76 H76        26.4903   25.1885    3.7003 H         1 UNK         0.0873 
     77 H77        28.5660   26.6980    3.3243 H         1 UNK         0.0745 
     78 H78        28.9175   25.7453    1.9122 H         1 UNK         0.0745 
     79 H79        30.9714   24.9937    5.5399 H         1 UNK         0.0705 
     80 H80        30.1978   26.4562    5.0030 H         1 UNK         0.0705 
     81 H81        33.0104   24.2466    4.5350 H         1 UNK         0.1334 
     82 H82        34.6491   26.3826    1.1928 H         1 UNK         0.1417 
     83 H83        30.7223   27.3201    2.6048 H         1 UNK         0.1562 
     84 H84        33.4848   28.5938    0.6711 H         1 UNK         0.0748 
     85 H85        31.7901   28.7598    0.9955 H         1 UNK         0.0748 
     86 H86        30.4507   26.2016    0.3161 H         1 UNK         0.0940 
     87 H87        30.6779   25.5944   -1.2791 H         1 UNK         0.0940 
     88 H88        29.6297   27.8800   -2.1215 H         1 UNK         0.0703 
     89 H89        27.5960   26.2251   -0.8472 H         1 UNK         0.3081 
     90 H90        26.5699   24.9869   -3.9769 H         1 UNK         0.0719 
     91 H91        28.2803   23.2162   -3.6507 H         1 UNK         0.0809 
     92 H92        27.9248   23.1534   -1.9283 H         1 UNK         0.0809 
     93 H93        26.7080   22.6562   -3.1020 H         1 UNK         0.0809 
     94 H94        26.1415   24.6759   -1.0292 H         1 UNK         0.2990 
     95 H95        23.5011   26.1764   -0.6919 H         1 UNK         0.0690 
     96 H96        21.4702   24.7057   -0.8014 H         1 UNK         0.0788 
     97 H97        22.2099   23.7911   -2.1150 H         1 UNK         0.0788 
     98 H98        21.8045   25.4860   -2.3367 H         1 UNK         0.0788 
     99 H99        24.1299   24.7848    0.8924 H         1 UNK         0.2993 
    100 H100       24.2370   21.9734    1.8109 H         1 UNK         0.0949 
    101 H101       26.8423   21.6963    0.2136 H         1 UNK         0.0767 
    102 H102       26.5250   20.9212    1.7651 H         1 UNK         0.0767 
    103 H103       25.5719   20.4905    0.3560 H         1 UNK         0.0767 
    104 H104       25.2574   23.5432    2.9964 H         1 UNK         0.3013 
    105 H105       30.2053   29.6952   -0.7489 H         1 UNK         0.3121 
    106 H106       27.9511   30.7377    0.7058 H         1 UNK         0.0774 
    107 H107       29.4448   32.7287    0.9882 H         1 UNK         0.0815 
    108 H108       30.7943   31.8231    0.3200 H         1 UNK         0.0815 
    109 H109       29.3913   32.1921   -0.6824 H         1 UNK         0.0815 
    110 H110       27.4581   30.0151    2.7190 H         1 UNK         0.2987 
    111 H111       29.2343   28.7766    4.5290 H         1 UNK         0.0949 
    112 H112       26.7887   28.3962    4.5595 H         1 UNK         0.0806 
    113 H113       27.3150   28.9701    6.1301 H         1 UNK         0.0806 
    114 H114       26.4999   30.0723    5.0297 H         1 UNK         0.0806 
    115 H115       28.7701   32.1528    3.9896 H         1 UNK         0.3010 
    116 H116       29.8039   33.1274    6.5144 H         1 UNK         0.0829 
    117 H117       29.5950   34.4642    3.7584 H         1 UNK         0.0813 
    118 H118       29.9491   35.2875    5.2705 H         1 UNK         0.0813 
    119 H119       28.3796   34.5386    5.0360 H         1 UNK         0.0813 
    120 H120       31.3162   31.6204    3.7586 H         1 UNK         0.3038 
    121 H121       34.0324   32.4997    4.6459 H         1 UNK         0.0769 
    122 H122       33.4058   33.6457    2.5011 H         1 UNK         0.0811 
    123 H123       33.0377   32.0823    1.7723 H         1 UNK         0.0811 
    124 H124       34.6863   32.4698    2.2501 H         1 UNK         0.0811 
    125 H125       32.8796   30.4193    5.8582 H         1 UNK         0.3204 
    126 H126       33.0363   27.9373    4.4871 H         1 UNK         0.0748 
    127 H127       32.7061   28.5675    7.4605 H         1 UNK         0.0771 
    128 H128       31.4125   28.3205    6.2870 H         1 UNK         0.0771 
    129 H129       32.4569   26.9862    6.7309 H         1 UNK         0.0771 
    130 H130       35.3525   28.5527    3.7788 H         1 UNK         0.2980 
    131 H131       37.4745   27.9546    3.6038 H         1 UNK         0.0545 
    132 H132       38.3092   29.7256    6.8911 H         1 UNK         0.3459 
    133 H133       36.8072   29.7660    6.0005 H         1 UNK         0.3459 
    134 H134       36.5158   25.5299    5.1958 H         1 UNK         0.0616 
    135 H135       38.1707   25.6484    4.6834 H         1 UNK         0.0616 
    136 H136       35.3018   23.8874    3.9670 H         1 UNK         0.0634 
    137 H137       35.2301   23.6370    2.2420 H         1 UNK         0.0634 
@<TRIPOS>BOND
     1    1    2 1    
     2    1   72 1    
     3    1   73 1    
     4    1   74 1    
     5    2    3 2    
     6    2    4 am   BACKBONE|DICT|INTERRES
     7    4    5 1    
     8    4   75 1    
     9    5    6 1    
    10    5   35 1    
    11    5   76 1    
    12    6    7 1    
    13    6   77 1    
    14    6   78 1    
    15    7    8 1    
    16    8    9 1    
    17    8   79 1    
    18    8   80 1    
    19    9   10 ar   
    20    9   14 ar   
    21   10   11 ar   
    22   10   81 1    
    23   11   12 ar   
    24   11   71 1    
    25   12   13 ar   
    26   12   82 1    
    27   13   14 ar   
    28   13   15 1    
    29   14   83 1    
    30   15   16 1    
    31   15   84 1    
    32   15   85 1    
    33   16   17 1    
    34   17   18 1    
    35   17   86 1    
    36   17   87 1    
    37   18   19 1    
    38   18   37 1    
    39   18   88 1    
    40   19   20 am   BACKBONE|DICT|INTERRES
    41   19   89 1    
    42   20   21 2    
    43   20   22 1    
    44   22   23 1    
    45   22   24 1    
    46   22   90 1    
    47   23   91 1    
    48   23   92 1    
    49   23   93 1    
    50   24   25 am   BACKBONE|DICT|INTERRES
    51   24   94 1    
    52   25   26 2    
    53   25   27 1    
    54   27   28 1    
    55   27   29 1    
    56   27   95 1    
    57   28   96 1    
    58   28   97 1    
    59   28   98 1    
    60   29   30 am   BACKBONE|DICT|INTERRES
    61   29   99 1    
    62   30   31 2    
    63   30   32 1    
    64   32   33 1    
    65   32   34 1    
    66   32  100 1    
    67   33  101 1    
    68   33  102 1    
    69   33  103 1    
    70   34   35 am   BACKBONE|DICT|INTERRES
    71   34  104 1    
    72   35   36 2    
    73   37   38 2    
    74   37   39 am   BACKBONE|DICT|INTERRES
    75   39   40 1    
    76   39  105 1    
    77   40   41 1    
    78   40   42 1    
    79   40  106 1    
    80   41  107 1    
    81   41  108 1    
    82   41  109 1    
    83   42   43 2    
    84   42   44 am   BACKBONE|DICT|INTERRES
    85   44   45 1    
    86   44  110 1    
    87   45   46 1    
    88   45   47 1    
    89   45  111 1    
    90   46  112 1    
    91   46  113 1    
    92   46  114 1    
    93   47   48 2    
    94   47   49 am   BACKBONE|DICT|INTERRES
    95   49   50 1    
    96   49  115 1    
    97   50   51 1    
    98   50   52 1    
    99   50  116 1    
   100   51  117 1    
   101   51  118 1    
   102   51  119 1    
   103   52   53 2    
   104   52   54 am   BACKBONE|DICT|INTERRES
   105   54   55 1    
   106   54  120 1    
   107   55   56 1    
   108   55   57 1    
   109   55  121 1    
   110   56  122 1    
   111   56  123 1    
   112   56  124 1    
   113   57   58 2    
   114   57   59 am   BACKBONE|DICT|INTERRES
   115   59   60 1    
   116   59  125 1    
   117   60   61 1    
   118   60   62 1    
   119   60  126 1    
   120   61  127 1    
   121   61  128 1    
   122   61  129 1    
   123   62   63 2    
   124   62   64 am   BACKBONE|DICT|INTERRES
   125   64   65 1    
   126   64  130 1    
   127   65   66 1    
   128   65   69 1    
   129   65  131 1    
   130   66   67 am   BACKBONE|DICT|INTERRES
   131   66   68 2    
   132   67  132 1    
   133   67  133 1    
   134   69   70 1    
   135   69  134 1    
   136   69  135 1    
   137   70   71 1    
   138   71  136 1    
   139   71  137 1    
@<TRIPOS>SUBSTRUCTURE
     1 UNK         1 GROUP             0       ****    0 ROOT    
