@<TRIPOS>MOLECULE
3R136
137   139    1
SMALL
USER_CHARGES


@<TRIPOS>ATOM
      1 CA         28.5815   22.7046   -3.6202 C.3       0 UNK        -0.1979 
      2 C          28.6294   23.2832   -2.2151 C.2       0 UNK         0.4864 
      3 O          28.2122   24.4242   -2.0133 O.2       0 UNK        -0.5359 
      4 N          29.1186   22.5006   -1.2419 N.am      1 UNK        -0.4318 
      5 CA         29.3043   22.8724    0.1697 C.3       1 UNK         0.0824 
      6 C6         29.8640   21.6947    1.0008 C.3       12 UNK        -0.0944 
      7 S7         31.5717   21.2905    0.5075 S.3       12 UNK        -0.2672 
      8 C8         32.4478   21.3345    2.1043 C.3       12 UNK         0.0333 
      9 C9         32.4864   22.7260    2.7255 C.ar      12 UNK        -0.0807 
     10 C10        33.3271   23.7095    2.1971 C.ar      12 UNK        -0.0894 
     11 C11        33.4209   24.9650    2.8056 C.ar      12 UNK        -0.0804 
     12 C12        32.6589   25.2362    3.9464 C.ar      12 UNK        -0.0824 
     13 C13        31.7981   24.2685    4.4755 C.ar      12 UNK        -0.0762 
     14 C14        31.7212   23.0145    3.8604 C.ar      12 UNK        -0.0782 
     15 C15        30.9744   24.5456    5.7317 C.3       12 UNK         0.0230 
     16 S16        30.1090   26.1532    5.7215 S.3       12 UNK        -0.2608 
     17 C17        29.0470   26.0129    4.2447 C.3       12 UNK        -0.0989 
     18 CA         28.9831   27.3428    3.4478 C.3       5 UNK         0.0716 
     19 N          28.9400   27.1130    2.0003 N.am      5 UNK        -0.4135 
     20 C          29.1867   28.0604    1.0843 C.2       4 UNK         0.5031 
     21 O          29.4226   29.2354    1.3592 O.2       4 UNK        -0.5229 
     22 CA         29.1055   27.6469   -0.3918 C.3       4 UNK         0.0329 
     23 CB         30.3364   26.8211   -0.7976 C.3       4 UNK        -0.2001 
     24 N          27.8793   26.9205   -0.7280 N.am      4 UNK        -0.4303 
     25 C          26.6372   27.4099   -0.5964 C.2       3 UNK         0.5044 
     26 O          26.3805   28.5065   -0.1015 O.2       3 UNK        -0.5152 
     27 CA         25.4865   26.5207   -1.0850 C.3       3 UNK         0.0319 
     28 CB         25.4116   26.5134   -2.6206 C.3       3 UNK        -0.2001 
     29 N          25.6427   25.1546   -0.5912 N.am      3 UNK        -0.4354 
     30 C          25.1819   24.7261    0.5921 C.2       2 UNK         0.4964 
     31 O          24.4959   25.4112    1.3503 O.2       2 UNK        -0.5047 
     32 CA         25.5613   23.2957    1.0177 C.3       2 UNK         0.0288 
     33 CB         24.4855   22.2956    0.5643 C.3       2 UNK        -0.2113 
     34 N          26.8696   22.8574    0.5231 N.am      2 UNK        -0.4145 
     35 C          28.0366   23.4402    0.8354 C.2       1 UNK         0.5006 
     36 O          28.1369   24.4150    1.5806 O.2       1 UNK        -0.5103 
     37 C          27.8287   28.2457    3.9347 C.2       5 UNK         0.5055 
     38 O          27.9975   28.9685    4.9169 O.2       5 UNK        -0.5220 
     39 N          26.6828   28.2069    3.2370 N.am      6 UNK        -0.4450 
     40 CA         25.5467   29.0967    3.4816 C.3       6 UNK         0.0367 
     41 CB         24.2871   28.5368    2.8021 C.3       6 UNK        -0.1929 
     42 C          25.8317   30.5341    3.0150 C.2       6 UNK         0.5070 
     43 O          25.4453   31.4781    3.7046 O.2       6 UNK        -0.5237 
     44 N          26.5056   30.6758    1.8646 N.am      7 UNK        -0.4739 
     45 CA         26.9383   31.9571    1.3067 C.3       7 UNK         0.0276 
     46 CB         27.3660   31.7690   -0.1582 C.3       7 UNK        -0.1927 
     47 C          28.0594   32.6108    2.1310 C.2       7 UNK         0.5013 
     48 O          27.9486   33.7932    2.4597 O.2       7 UNK        -0.5193 
     49 N          29.1056   31.8414    2.4579 N.am      8 UNK        -0.4253 
     50 CA         30.2507   32.2911    3.2440 C.3       8 UNK         0.0242 
     51 CB         31.2100   33.1242    2.3689 C.3       8 UNK        -0.2000 
     52 C          30.9577   31.0751    3.8516 C.2       8 UNK         0.4948 
     53 O          31.7219   30.4059    3.1545 O.2       8 UNK        -0.5275 
     54 N          30.7080   30.8177    5.1425 N.am      9 UNK        -0.4246 
     55 CA         31.4142   29.8033    5.9306 C.3       9 UNK         0.0261 
     56 CB         30.7419   29.6605    7.3052 C.3       9 UNK        -0.1959 
     57 C          32.9042   30.1560    6.0817 C.2       9 UNK         0.5033 
     58 O          33.2321   31.3386    6.2118 O.2       9 UNK        -0.5390 
     59 N          33.7636   29.1255    6.0537 N.am      10 UNK        -0.4215 
     60 CA         35.2261   29.2072    5.9205 C.3       10 UNK         0.0240 
     61 CB         35.8749   29.8591    7.1613 C.3       10 UNK        -0.1982 
     62 C          35.6081   29.8938    4.5933 C.2       10 UNK         0.4970 
     63 O          36.1808   30.9850    4.5994 O.2       10 UNK        -0.4916 
     64 N          35.2098   29.2368    3.4949 N.am      11 UNK        -0.4279 
     65 CA         35.2540   29.6730    2.0896 C.3       11 UNK         0.1003 
     66 C          36.5695   30.3838    1.6653 C.2       11 UNK         0.5709 
     67 N          36.4757   31.5123    0.9752 N.am      11 UNK        -0.7358 
     68 O          37.6685   29.8902    1.9115 O.2       11 UNK        -0.4999 
     69 C69        34.9725   28.4854    1.1249 C.3       12 UNK        -0.0954 
     70 S70        33.5291   27.4605    1.5807 S.3       12 UNK        -0.2268 
     71 C71        34.3868   26.0077    2.2651 C.3       12 UNK         0.0203 
     72 H72        27.5551   22.6941   -3.9856 H         1 UNK         0.0888 
     73 H73        29.1776   23.3172   -4.2959 H         1 UNK         0.0888 
     74 H74        28.9664   21.6856   -3.6560 H         1 UNK         0.0888 
     75 H75        29.4547   21.5789   -1.4834 H         1 UNK         0.3017 
     76 H76        30.0431   23.6748    0.1884 H         1 UNK         0.0873 
     77 H77        29.2443   20.8041    0.8804 H         1 UNK         0.0745 
     78 H78        29.8453   21.9280    2.0663 H         1 UNK         0.0745 
     79 H79        33.4699   20.9857    1.9501 H         1 UNK         0.0705 
     80 H80        31.9851   20.6177    2.7846 H         1 UNK         0.0705 
     81 H81        33.9248   23.4854    1.3239 H         1 UNK         0.1334 
     82 H82        32.7363   26.2032    4.4221 H         1 UNK         0.1417 
     83 H83        31.0761   22.2528    4.2771 H         1 UNK         0.1562 
     84 H84        31.6384   24.5134    6.5963 H         1 UNK         0.0748 
     85 H85        30.2318   23.7612    5.8860 H         1 UNK         0.0748 
     86 H86        28.0567   25.6561    4.5351 H         1 UNK         0.0940 
     87 H87        29.4615   25.2254    3.6162 H         1 UNK         0.0940 
     88 H88        29.9080   27.8963    3.6272 H         1 UNK         0.0703 
     89 H89        28.7052   26.1688    1.7001 H         1 UNK         0.3081 
     90 H90        29.1067   28.5617   -0.9881 H         1 UNK         0.0719 
     91 H91        30.3066   26.5527   -1.8537 H         1 UNK         0.0809 
     92 H92        31.2541   27.3869   -0.6314 H         1 UNK         0.0809 
     93 H93        30.4156   25.9015   -0.2195 H         1 UNK         0.0809 
     94 H94        27.9966   26.0058   -1.1619 H         1 UNK         0.2990 
     95 H95        24.5517   26.9421   -0.7082 H         1 UNK         0.0690 
     96 H96        25.2885   27.5255   -3.0083 H         1 UNK         0.0788 
     97 H97        24.5621   25.9269   -2.9710 H         1 UNK         0.0788 
     98 H98        26.3130   26.0983   -3.0730 H         1 UNK         0.0788 
     99 H99        26.2563   24.5509   -1.1249 H         1 UNK         0.2993 
    100 H100       25.6023   23.2853    2.1092 H         1 UNK         0.0949 
    101 H101       24.4172   22.2407   -0.5230 H         1 UNK         0.0767 
    102 H102       24.6909   21.2931    0.9404 H         1 UNK         0.0767 
    103 H103       23.5022   22.5845    0.9385 H         1 UNK         0.0767 
    104 H104       26.8801   22.0711   -0.1103 H         1 UNK         0.3013 
    105 H105       26.6244   27.6018    2.4305 H         1 UNK         0.3121 
    106 H106       25.3618   29.1275    4.5577 H         1 UNK         0.0774 
    107 H107       24.4051   28.4615    1.7209 H         1 UNK         0.0815 
    108 H108       23.4255   29.1782    2.9913 H         1 UNK         0.0815 
    109 H109       24.0409   27.5444    3.1802 H         1 UNK         0.0815 
    110 H110       26.7266   29.8461    1.3215 H         1 UNK         0.2987 
    111 H111       26.0814   32.6345    1.3209 H         1 UNK         0.0949 
    112 H112       28.2012   31.0743   -0.2518 H         1 UNK         0.0806 
    113 H113       26.5449   31.3835   -0.7630 H         1 UNK         0.0806 
    114 H114       27.6777   32.7168   -0.5989 H         1 UNK         0.0806 
    115 H115       29.1450   30.8749    2.1296 H         1 UNK         0.3010 
    116 H116       29.8954   32.9240    4.0603 H         1 UNK         0.0829 
    117 H117       30.7401   34.0451    2.0239 H         1 UNK         0.0813 
    118 H118       32.1021   33.4060    2.9296 H         1 UNK         0.0813 
    119 H119       31.5382   32.5665    1.4908 H         1 UNK         0.0813 
    120 H120       30.0659   31.4118    5.6457 H         1 UNK         0.3038 
    121 H121       31.3296   28.8546    5.3981 H         1 UNK         0.0769 
    122 H122       30.7846   30.5896    7.8750 H         1 UNK         0.0811 
    123 H123       31.2308   28.8882    7.9003 H         1 UNK         0.0811 
    124 H124       29.6949   29.3729    7.2039 H         1 UNK         0.0811 
    125 H125       33.3750   28.1950    5.9925 H         1 UNK         0.3204 
    126 H126       35.5953   28.1817    5.8639 H         1 UNK         0.0748 
    127 H127       36.9626   29.8282    7.0892 H         1 UNK         0.0771 
    128 H128       35.5903   30.9054    7.2753 H         1 UNK         0.0771 
    129 H129       35.5950   29.3353    8.0751 H         1 UNK         0.0771 
    130 H130       34.7202   28.3662    3.6259 H         1 UNK         0.2980 
    131 H131       34.4353   30.3871    1.9844 H         1 UNK         0.0545 
    132 H132       37.3199   31.9756    0.6775 H         1 UNK         0.3459 
    133 H133       35.5790   31.9156    0.7543 H         1 UNK         0.3459 
    134 H134       34.7958   28.8645    0.1170 H         1 UNK         0.0616 
    135 H135       35.8494   27.8396    1.0473 H         1 UNK         0.0616 
    136 H136       35.0558   26.3208    3.0674 H         1 UNK         0.0634 
    137 H137       35.0198   25.5753    1.4886 H         1 UNK         0.0634 
@<TRIPOS>BOND
     1    1    2 1    
     2    1   72 1    
     3    1   73 1    
     4    1   74 1    
     5    2    3 2    
     6    2    4 am   BACKBONE|DICT|INTERRES
     7    4    5 1    
     8    4   75 1    
     9    5    6 1    
    10    5   35 1    
    11    5   76 1    
    12    6    7 1    
    13    6   77 1    
    14    6   78 1    
    15    7    8 1    
    16    8    9 1    
    17    8   79 1    
    18    8   80 1    
    19    9   10 ar   
    20    9   14 ar   
    21   10   11 ar   
    22   10   81 1    
    23   11   12 ar   
    24   11   71 1    
    25   12   13 ar   
    26   12   82 1    
    27   13   14 ar   
    28   13   15 1    
    29   14   83 1    
    30   15   16 1    
    31   15   84 1    
    32   15   85 1    
    33   16   17 1    
    34   17   18 1    
    35   17   86 1    
    36   17   87 1    
    37   18   19 1    
    38   18   37 1    
    39   18   88 1    
    40   19   20 am   BACKBONE|DICT|INTERRES
    41   19   89 1    
    42   20   21 2    
    43   20   22 1    
    44   22   23 1    
    45   22   24 1    
    46   22   90 1    
    47   23   91 1    
    48   23   92 1    
    49   23   93 1    
    50   24   25 am   BACKBONE|DICT|INTERRES
    51   24   94 1    
    52   25   26 2    
    53   25   27 1    
    54   27   28 1    
    55   27   29 1    
    56   27   95 1    
    57   28   96 1    
    58   28   97 1    
    59   28   98 1    
    60   29   30 am   BACKBONE|DICT|INTERRES
    61   29   99 1    
    62   30   31 2    
    63   30   32 1    
    64   32   33 1    
    65   32   34 1    
    66   32  100 1    
    67   33  101 1    
    68   33  102 1    
    69   33  103 1    
    70   34   35 am   BACKBONE|DICT|INTERRES
    71   34  104 1    
    72   35   36 2    
    73   37   38 2    
    74   37   39 am   BACKBONE|DICT|INTERRES
    75   39   40 1    
    76   39  105 1    
    77   40   41 1    
    78   40   42 1    
    79   40  106 1    
    80   41  107 1    
    81   41  108 1    
    82   41  109 1    
    83   42   43 2    
    84   42   44 am   BACKBONE|DICT|INTERRES
    85   44   45 1    
    86   44  110 1    
    87   45   46 1    
    88   45   47 1    
    89   45  111 1    
    90   46  112 1    
    91   46  113 1    
    92   46  114 1    
    93   47   48 2    
    94   47   49 am   BACKBONE|DICT|INTERRES
    95   49   50 1    
    96   49  115 1    
    97   50   51 1    
    98   50   52 1    
    99   50  116 1    
   100   51  117 1    
   101   51  118 1    
   102   51  119 1    
   103   52   53 2    
   104   52   54 am   BACKBONE|DICT|INTERRES
   105   54   55 1    
   106   54  120 1    
   107   55   56 1    
   108   55   57 1    
   109   55  121 1    
   110   56  122 1    
   111   56  123 1    
   112   56  124 1    
   113   57   58 2    
   114   57   59 am   BACKBONE|DICT|INTERRES
   115   59   60 1    
   116   59  125 1    
   117   60   61 1    
   118   60   62 1    
   119   60  126 1    
   120   61  127 1    
   121   61  128 1    
   122   61  129 1    
   123   62   63 2    
   124   62   64 am   BACKBONE|DICT|INTERRES
   125   64   65 1    
   126   64  130 1    
   127   65   66 1    
   128   65   69 1    
   129   65  131 1    
   130   66   67 am   BACKBONE|DICT|INTERRES
   131   66   68 2    
   132   67  132 1    
   133   67  133 1    
   134   69   70 1    
   135   69  134 1    
   136   69  135 1    
   137   70   71 1    
   138   71  136 1    
   139   71  137 1    
@<TRIPOS>SUBSTRUCTURE
     1 UNK         1 GROUP             0       ****    0 ROOT    
