@<TRIPOS>MOLECULE
3R136
137   139    1
SMALL
USER_CHARGES


@<TRIPOS>ATOM
      1 CA         32.3780   23.6072   -0.6628 C.3       0 UNK        -0.1979 
      2 C          30.9931   23.5610   -0.0377 C.2       0 UNK         0.4864 
      3 O          30.1367   24.3704   -0.3973 O.2       0 UNK        -0.5359 
      4 N          30.7604   22.6074    0.8762 N.am      1 UNK        -0.4318 
      5 CA         29.5632   22.4604    1.7226 C.3       1 UNK         0.0824 
      6 C6         29.6655   21.2288    2.6652 C.3       12 UNK        -0.0944 
      7 S7         31.2512   21.0929    3.5639 S.3       12 UNK        -0.2672 
      8 C8         30.8640   21.8993    5.1517 C.3       12 UNK         0.0333 
      9 C9         30.5902   23.3828    4.9635 C.ar      12 UNK        -0.0807 
     10 C10        31.6208   24.2354    4.5613 C.ar      12 UNK        -0.0894 
     11 C11        31.3696   25.5852    4.2935 C.ar      12 UNK        -0.0804 
     12 C12        30.0767   26.0878    4.4787 C.ar      12 UNK        -0.0824 
     13 C13        29.0444   25.2501    4.9160 C.ar      12 UNK        -0.0762 
     14 C14        29.3057   23.8979    5.1538 C.ar      12 UNK        -0.0782 
     15 C15        27.6385   25.7932    5.1100 C.3       12 UNK         0.0230 
     16 S16        26.6362   25.4777    3.6268 S.3       12 UNK        -0.2608 
     17 C17        25.8282   27.0895    3.3530 C.3       12 UNK        -0.0989 
     18 CA         26.7932   28.2097    2.8845 C.3       5 UNK         0.0716 
     19 N          27.7176   27.7582    1.8405 N.am      5 UNK        -0.4135 
     20 C          28.7464   28.4608    1.3511 C.2       4 UNK         0.5031 
     21 O          29.0642   29.5764    1.7636 O.2       4 UNK        -0.5229 
     22 CA         29.5241   27.8508    0.1739 C.3       4 UNK         0.0329 
     23 CB         30.8786   27.3171    0.6548 C.3       4 UNK        -0.2001 
     24 N          28.8119   26.7957   -0.5606 N.am      4 UNK        -0.4303 
     25 C          27.6663   26.9770   -1.2351 C.2       3 UNK         0.5044 
     26 O          27.0297   28.0322   -1.2050 O.2       3 UNK        -0.5152 
     27 CA         27.1223   25.8167   -2.0807 C.3       3 UNK         0.0319 
     28 CB         27.6211   25.9323   -3.5317 C.3       3 UNK        -0.2001 
     29 N          27.4382   24.4801   -1.5589 N.am      3 UNK        -0.4354 
     30 C          26.5957   23.4372   -1.6512 C.2       2 UNK         0.4964 
     31 O          25.4504   23.5280   -2.0964 O.2       2 UNK        -0.5047 
     32 CA         27.0920   22.0426   -1.2205 C.3       2 UNK         0.0288 
     33 CB         27.4385   21.1955   -2.4567 C.3       2 UNK        -0.2113 
     34 N          28.2503   22.0672   -0.3302 N.am      2 UNK        -0.4145 
     35 C          28.2166   22.4140    0.9632 C.2       1 UNK         0.5006 
     36 O          27.1752   22.6829    1.5620 O.2       1 UNK        -0.5103 
     37 C          25.9921   29.4683    2.4847 C.2       5 UNK         0.5055 
     38 O          25.5582   30.2019    3.3732 O.2       5 UNK        -0.5220 
     39 N          25.8223   29.7111    1.1737 N.am      6 UNK        -0.4450 
     40 CA         25.2078   30.9274    0.6350 C.3       6 UNK         0.0367 
     41 CB         24.9012   30.7294   -0.8579 C.3       6 UNK        -0.1929 
     42 C          26.0830   32.1765    0.8460 C.2       6 UNK         0.5070 
     43 O          25.5425   33.2608    1.0652 O.2       6 UNK        -0.5237 
     44 N          27.4109   32.0026    0.7891 N.am      7 UNK        -0.4739 
     45 CA         28.3939   33.0422    1.1024 C.3       7 UNK         0.0276 
     46 CB         29.6824   32.7820    0.3036 C.3       7 UNK        -0.1927 
     47 C          28.6998   33.0976    2.6081 C.2       7 UNK         0.5013 
     48 O          28.9512   34.1839    3.1303 O.2       7 UNK        -0.5193 
     49 N          28.6853   31.9243    3.2609 N.am      8 UNK        -0.4253 
     50 CA         29.0307   31.6668    4.6645 C.3       8 UNK         0.0242 
     51 CB         28.0467   32.3708    5.6226 C.3       8 UNK        -0.2000 
     52 C          30.5106   31.9706    4.9725 C.2       8 UNK         0.4948 
     53 O          30.8370   32.4216    6.0725 O.2       8 UNK        -0.5275 
     54 N          31.3783   31.7199    3.9838 N.am      9 UNK        -0.4246 
     55 CA         32.8273   31.8850    4.0720 C.3       9 UNK         0.0261 
     56 CB         33.3862   32.0354    2.6466 C.3       9 UNK        -0.1959 
     57 C          33.4798   30.6844    4.7729 C.2       9 UNK         0.5033 
     58 O          32.9156   29.5872    4.7735 O.2       9 UNK        -0.5390 
     59 N          34.6950   30.8889    5.2962 N.am      10 UNK        -0.4215 
     60 CA         35.5533   29.8409    5.8572 C.3       10 UNK         0.0240 
     61 CB         36.5762   30.4860    6.8114 C.3       10 UNK        -0.1982 
     62 C          36.2217   29.0281    4.7306 C.2       10 UNK         0.4970 
     63 O          37.4300   29.1406    4.5172 O.2       10 UNK        -0.4916 
     64 N          35.4012   28.2678    3.9973 N.am      11 UNK        -0.4279 
     65 CA         35.7782   27.5071    2.7969 C.3       11 UNK         0.1003 
     66 C          36.7282   26.2922    3.0230 C.2       11 UNK         0.5709 
     67 N          36.9532   25.8425    4.2521 N.am      11 UNK        -0.7358 
     68 O          37.2818   25.7601    2.0637 O.2       11 UNK        -0.4999 
     69 C69        34.5269   27.1653    1.9401 C.3       12 UNK        -0.0954 
     70 S70        33.5251   25.7515    2.5204 S.3       12 UNK        -0.2268 
     71 C71        32.4876   26.5071    3.8169 C.3       12 UNK         0.0203 
     72 H72        32.8423   24.5727   -0.4633 H         1 UNK         0.0888 
     73 H73        33.0308   22.8297   -0.2665 H         1 UNK         0.0888 
     74 H74        32.3076   23.4781   -1.7423 H         1 UNK         0.0888 
     75 H75        31.5108   21.9749    1.1176 H         1 UNK         0.3017 
     76 H76        29.5243   23.3607    2.3382 H         1 UNK         0.0873 
     77 H77        29.5466   20.3070    2.0921 H         1 UNK         0.0745 
     78 H78        28.8495   21.2358    3.3908 H         1 UNK         0.0745 
     79 H79        30.0163   21.3958    5.6193 H         1 UNK         0.0705 
     80 H80        31.7097   21.7734    5.8292 H         1 UNK         0.0705 
     81 H81        32.6148   23.8333    4.4205 H         1 UNK         0.1334 
     82 H82        29.8716   27.1310    4.2794 H         1 UNK         0.1417 
     83 H83        28.5012   23.2444    5.4633 H         1 UNK         0.1562 
     84 H84        27.6753   26.8580    5.3407 H         1 UNK         0.0748 
     85 H85        27.1648   25.3150    5.9687 H         1 UNK         0.0748 
     86 H86        25.3162   27.3857    4.2710 H         1 UNK         0.0940 
     87 H87        25.0432   26.9276    2.6111 H         1 UNK         0.0940 
     88 H88        27.4115   28.5028    3.7347 H         1 UNK         0.0703 
     89 H89        27.5425   26.8390    1.4617 H         1 UNK         0.3081 
     90 H90        29.7140   28.6630   -0.5307 H         1 UNK         0.0719 
     91 H91        30.7546   26.4875    1.3518 H         1 UNK         0.0809 
     92 H92        31.4886   26.9660   -0.1775 H         1 UNK         0.0809 
     93 H93        31.4467   28.0960    1.1647 H         1 UNK         0.0809 
     94 H94        29.2856   25.8937   -0.6001 H         1 UNK         0.2990 
     95 H95        26.0385   25.9527   -2.0885 H         1 UNK         0.0690 
     96 H96        27.4066   26.9196   -3.9438 H         1 UNK         0.0788 
     97 H97        27.1347   25.2011   -4.1776 H         1 UNK         0.0788 
     98 H98        28.6984   25.7753   -3.5991 H         1 UNK         0.0788 
     99 H99        28.3647   24.3371   -1.1654 H         1 UNK         0.2993 
    100 H100       26.2676   21.5562   -0.6941 H         1 UNK         0.0949 
    101 H101       27.7168   20.1792   -2.1768 H         1 UNK         0.0767 
    102 H102       26.5844   21.1206   -3.1315 H         1 UNK         0.0767 
    103 H103       28.2644   21.6277   -3.0235 H         1 UNK         0.0767 
    104 H104       29.1504   21.8728   -0.7440 H         1 UNK         0.3013 
    105 H105       26.2038   29.0584    0.4967 H         1 UNK         0.3121 
    106 H106       24.2632   31.0914    1.1584 H         1 UNK         0.0774 
    107 H107       24.4091   31.6093   -1.2747 H         1 UNK         0.0815 
    108 H108       25.8089   30.5578   -1.4380 H         1 UNK         0.0815 
    109 H109       24.2368   29.8801   -1.0180 H         1 UNK         0.0815 
    110 H110       27.7712   31.0709    0.6316 H         1 UNK         0.2987 
    111 H111       28.0004   34.0170    0.8049 H         1 UNK         0.0949 
    112 H112       30.1276   31.8170    0.5487 H         1 UNK         0.0806 
    113 H113       29.4922   32.7995   -0.7697 H         1 UNK         0.0806 
    114 H114       30.4309   33.5480    0.5118 H         1 UNK         0.0806 
    115 H115       28.5571   31.0882    2.6954 H         1 UNK         0.3010 
    116 H116       28.9122   30.5917    4.8079 H         1 UNK         0.0829 
    117 H117       28.1517   33.4555    5.5883 H         1 UNK         0.0813 
    118 H118       27.0134   32.1245    5.3774 H         1 UNK         0.0813 
    119 H119       28.2175   32.0611    6.6543 H         1 UNK         0.0813 
    120 H120       31.0235   31.2940    3.1399 H         1 UNK         0.3038 
    121 H121       33.0488   32.7914    4.6398 H         1 UNK         0.0769 
    122 H122       33.2042   31.1435    2.0449 H         1 UNK         0.0811 
    123 H123       34.4639   32.2034    2.6605 H         1 UNK         0.0811 
    124 H124       32.9354   32.8842    2.1316 H         1 UNK         0.0811 
    125 H125       35.1051   31.8091    5.2207 H         1 UNK         0.3204 
    126 H126       34.9401   29.1526    6.4436 H         1 UNK         0.0748 
    127 H127       37.2267   29.7305    7.2542 H         1 UNK         0.0771 
    128 H128       37.2148   31.2060    6.2979 H         1 UNK         0.0771 
    129 H129       36.0797   31.0043    7.6321 H         1 UNK         0.0771 
    130 H130       34.4128   28.2988    4.2202 H         1 UNK         0.2980 
    131 H131       36.3679   28.2014    2.1950 H         1 UNK         0.0545 
    132 H132       37.5743   25.0606    4.3860 H         1 UNK         0.3459 
    133 H133       36.5055   26.2751    5.0432 H         1 UNK         0.3459 
    134 H134       33.8842   28.0414    1.8403 H         1 UNK         0.0616 
    135 H135       34.8450   26.9276    0.9237 H         1 UNK         0.0616 
    136 H136       33.1111   26.7645    4.6731 H         1 UNK         0.0634 
    137 H137       32.0698   27.4390    3.4350 H         1 UNK         0.0634 
@<TRIPOS>BOND
     1    1    2 1    
     2    1   72 1    
     3    1   73 1    
     4    1   74 1    
     5    2    3 2    
     6    2    4 am   BACKBONE|DICT|INTERRES
     7    4    5 1    
     8    4   75 1    
     9    5    6 1    
    10    5   35 1    
    11    5   76 1    
    12    6    7 1    
    13    6   77 1    
    14    6   78 1    
    15    7    8 1    
    16    8    9 1    
    17    8   79 1    
    18    8   80 1    
    19    9   10 ar   
    20    9   14 ar   
    21   10   11 ar   
    22   10   81 1    
    23   11   12 ar   
    24   11   71 1    
    25   12   13 ar   
    26   12   82 1    
    27   13   14 ar   
    28   13   15 1    
    29   14   83 1    
    30   15   16 1    
    31   15   84 1    
    32   15   85 1    
    33   16   17 1    
    34   17   18 1    
    35   17   86 1    
    36   17   87 1    
    37   18   19 1    
    38   18   37 1    
    39   18   88 1    
    40   19   20 am   BACKBONE|DICT|INTERRES
    41   19   89 1    
    42   20   21 2    
    43   20   22 1    
    44   22   23 1    
    45   22   24 1    
    46   22   90 1    
    47   23   91 1    
    48   23   92 1    
    49   23   93 1    
    50   24   25 am   BACKBONE|DICT|INTERRES
    51   24   94 1    
    52   25   26 2    
    53   25   27 1    
    54   27   28 1    
    55   27   29 1    
    56   27   95 1    
    57   28   96 1    
    58   28   97 1    
    59   28   98 1    
    60   29   30 am   BACKBONE|DICT|INTERRES
    61   29   99 1    
    62   30   31 2    
    63   30   32 1    
    64   32   33 1    
    65   32   34 1    
    66   32  100 1    
    67   33  101 1    
    68   33  102 1    
    69   33  103 1    
    70   34   35 am   BACKBONE|DICT|INTERRES
    71   34  104 1    
    72   35   36 2    
    73   37   38 2    
    74   37   39 am   BACKBONE|DICT|INTERRES
    75   39   40 1    
    76   39  105 1    
    77   40   41 1    
    78   40   42 1    
    79   40  106 1    
    80   41  107 1    
    81   41  108 1    
    82   41  109 1    
    83   42   43 2    
    84   42   44 am   BACKBONE|DICT|INTERRES
    85   44   45 1    
    86   44  110 1    
    87   45   46 1    
    88   45   47 1    
    89   45  111 1    
    90   46  112 1    
    91   46  113 1    
    92   46  114 1    
    93   47   48 2    
    94   47   49 am   BACKBONE|DICT|INTERRES
    95   49   50 1    
    96   49  115 1    
    97   50   51 1    
    98   50   52 1    
    99   50  116 1    
   100   51  117 1    
   101   51  118 1    
   102   51  119 1    
   103   52   53 2    
   104   52   54 am   BACKBONE|DICT|INTERRES
   105   54   55 1    
   106   54  120 1    
   107   55   56 1    
   108   55   57 1    
   109   55  121 1    
   110   56  122 1    
   111   56  123 1    
   112   56  124 1    
   113   57   58 2    
   114   57   59 am   BACKBONE|DICT|INTERRES
   115   59   60 1    
   116   59  125 1    
   117   60   61 1    
   118   60   62 1    
   119   60  126 1    
   120   61  127 1    
   121   61  128 1    
   122   61  129 1    
   123   62   63 2    
   124   62   64 am   BACKBONE|DICT|INTERRES
   125   64   65 1    
   126   64  130 1    
   127   65   66 1    
   128   65   69 1    
   129   65  131 1    
   130   66   67 am   BACKBONE|DICT|INTERRES
   131   66   68 2    
   132   67  132 1    
   133   67  133 1    
   134   69   70 1    
   135   69  134 1    
   136   69  135 1    
   137   70   71 1    
   138   71  136 1    
   139   71  137 1    
@<TRIPOS>SUBSTRUCTURE
     1 UNK         1 GROUP             0       ****    0 ROOT    
