@<TRIPOS>MOLECULE
3R136
137   139    1
SMALL
USER_CHARGES


@<TRIPOS>ATOM
      1 CA         26.6718   19.5007    0.6614 C.3       0 UNK        -0.1979 
      2 C          27.1240   20.9165    0.3372 C.2       0 UNK         0.4864 
      3 O          26.4648   21.6030   -0.4451 O.2       0 UNK        -0.5359 
      4 N          28.2378   21.3590    0.9400 N.am      1 UNK        -0.4318 
      5 CA         28.8559   22.6771    0.7394 C.3       1 UNK         0.0824 
      6 C6         30.1386   22.8511    1.5822 C.3       12 UNK        -0.0944 
      7 S7         31.4722   21.6431    1.2774 S.3       12 UNK        -0.2672 
      8 C8         32.5805   21.9659    2.7023 C.3       12 UNK         0.0333 
      9 C9         32.9172   23.4471    2.8307 C.ar      12 UNK        -0.0807 
     10 C10        33.9807   24.0043    2.1156 C.ar      12 UNK        -0.0894 
     11 C11        34.1902   25.3885    2.1150 C.ar      12 UNK        -0.0804 
     12 C12        33.3068   26.2160    2.8207 C.ar      12 UNK        -0.0824 
     13 C13        32.2469   25.6638    3.5482 C.ar      12 UNK        -0.0762 
     14 C14        32.0958   24.2783    3.5958 C.ar      12 UNK        -0.0782 
     15 C15        31.1929   26.5458    4.2019 C.3       12 UNK         0.0230 
     16 S16        29.6472   26.5197    3.2361 S.3       12 UNK        -0.2608 
     17 C17        30.1979   27.3849    1.7226 C.3       12 UNK        -0.0989 
     18 CA         29.1763   28.3515    1.0721 C.3       5 UNK         0.0716 
     19 N          28.2600   27.6730    0.1476 N.am      5 UNK        -0.4135 
     20 C          27.6098   28.2946   -0.8491 C.2       4 UNK         0.5031 
     21 O          27.5753   29.5198   -0.9748 O.2       4 UNK        -0.5229 
     22 CA         26.8891   27.4173   -1.8812 C.3       4 UNK         0.0329 
     23 CB         27.9064   26.7419   -2.8162 C.3       4 UNK        -0.2001 
     24 N          26.0736   26.3923   -1.2338 N.am      4 UNK        -0.4303 
     25 C          24.7338   26.3520   -1.2509 C.2       3 UNK         0.5044 
     26 O          24.0283   27.1634   -1.8519 O.2       3 UNK        -0.5152 
     27 CA         24.0511   25.2146   -0.4651 C.3       3 UNK         0.0319 
     28 CB         23.6784   24.0593   -1.4080 C.3       3 UNK        -0.2001 
     29 N          24.8620   24.6883    0.6350 N.am      3 UNK        -0.4354 
     30 C          25.2381   25.3934    1.7117 C.2       2 UNK         0.4964 
     31 O          24.8842   26.5516    1.9296 O.2       2 UNK        -0.5047 
     32 CA         26.2084   24.7148    2.6918 C.3       2 UNK         0.0288 
     33 CB         25.4367   24.1025    3.8714 C.3       2 UNK        -0.2113 
     34 N          27.0769   23.6893    2.1011 N.am      2 UNK        -0.4145 
     35 C          27.9178   23.8584    1.0675 C.2       1 UNK         0.5006 
     36 O          27.9887   24.8919    0.3981 O.2       1 UNK        -0.5103 
     37 C          28.4945   29.3086    2.0724 C.2       5 UNK         0.5055 
     38 O          29.1904   30.1272    2.6724 O.2       5 UNK        -0.5220 
     39 N          27.1593   29.2523    2.1982 N.am      6 UNK        -0.4450 
     40 CA         26.3541   30.2151    2.9593 C.3       6 UNK         0.0367 
     41 CB         24.8879   29.7564    2.9726 C.3       6 UNK        -0.1929 
     42 C          26.4624   31.6641    2.4398 C.2       6 UNK         0.5070 
     43 O          26.2395   32.5967    3.2116 O.2       6 UNK        -0.5237 
     44 N          26.8271   31.8324    1.1601 N.am      7 UNK        -0.4739 
     45 CA         27.1348   33.1244    0.5415 C.3       7 UNK         0.0276 
     46 CB         26.8452   33.0238   -0.9660 C.3       7 UNK        -0.1927 
     47 C          28.5872   33.5881    0.7850 C.2       7 UNK         0.5013 
     48 O          28.9297   34.6965    0.3696 O.2       7 UNK        -0.5193 
     49 N          29.4177   32.7478    1.4169 N.am      8 UNK        -0.4253 
     50 CA         30.8317   32.9855    1.6956 C.3       8 UNK         0.0242 
     51 CB         31.6785   32.0500    0.8052 C.3       8 UNK        -0.2000 
     52 C          31.0736   32.8184    3.2064 C.2       8 UNK         0.4948 
     53 O          30.4112   33.4943    3.9966 O.2       8 UNK        -0.5275 
     54 N          32.0130   31.9468    3.5888 N.am      9 UNK        -0.4246 
     55 CA         32.3796   31.6155    4.9622 C.3       9 UNK         0.0261 
     56 CB         33.3761   32.6589    5.5031 C.3       9 UNK        -0.1959 
     57 C          32.9852   30.2056    4.9747 C.2       9 UNK         0.5033 
     58 O          33.3053   29.6708    3.9089 O.2       9 UNK        -0.5390 
     59 N          33.1337   29.6319    6.1762 N.am      10 UNK        -0.4215 
     60 CA         33.7445   28.3208    6.4100 C.3       10 UNK         0.0240 
     61 CB         33.5333   27.9107    7.8766 C.3       10 UNK        -0.1982 
     62 C          35.2381   28.3102    6.0487 C.2       10 UNK         0.4970 
     63 O          35.9868   29.1578    6.5407 O.2       10 UNK        -0.4916 
     64 N          35.6340   27.3484    5.2099 N.am      11 UNK        -0.4279 
     65 CA         37.0231   27.1257    4.7907 C.3       11 UNK         0.1003 
     66 C          37.8591   26.4199    5.8918 C.2       11 UNK         0.5709 
     67 N          39.1660   26.6439    5.9149 N.am      11 UNK        -0.7358 
     68 O          37.3451   25.6485    6.7006 O.2       11 UNK        -0.4999 
     69 C69        37.0913   26.3498    3.4502 C.3       12 UNK        -0.0954 
     70 S70        36.2868   27.2727    2.0971 S.3       12 UNK        -0.2268 
     71 C71        35.3143   25.9748    1.2649 C.3       12 UNK         0.0203 
     72 H72        26.6390   18.9009   -0.2477 H         1 UNK         0.0888 
     73 H73        27.3414   19.0097    1.3675 H         1 UNK         0.0888 
     74 H74        25.6726   19.5164    1.0958 H         1 UNK         0.0888 
     75 H75        28.7453   20.7372    1.5539 H         1 UNK         0.3017 
     76 H76        29.1192   22.7565   -0.3173 H         1 UNK         0.0873 
     77 H77        30.5591   23.8420    1.3954 H         1 UNK         0.0745 
     78 H78        29.8856   22.8100    2.6430 H         1 UNK         0.0745 
     79 H79        32.1049   21.6062    3.6161 H         1 UNK         0.0705 
     80 H80        33.4949   21.3829    2.5832 H         1 UNK         0.0705 
     81 H81        34.6154   23.3619    1.5203 H         1 UNK         0.1334 
     82 H82        33.4235   27.2904    2.7712 H         1 UNK         0.1417 
     83 H83        31.2654   23.8574    4.1457 H         1 UNK         0.1562 
     84 H84        31.5345   27.5771    4.2871 H         1 UNK         0.0748 
     85 H85        30.9929   26.1959    5.2157 H         1 UNK         0.0748 
     86 H86        30.5325   26.6379    1.0006 H         1 UNK         0.0940 
     87 H87        31.0913   27.9619    1.9684 H         1 UNK         0.0940 
     88 H88        29.7740   29.0113    0.4382 H         1 UNK         0.0703 
     89 H89        28.2210   26.6573    0.2176 H         1 UNK         0.3081 
     90 H90        26.2653   28.0764   -2.4888 H         1 UNK         0.0719 
     91 H91        28.5427   27.4826   -3.3026 H         1 UNK         0.0809 
     92 H92        28.5583   26.0511   -2.2794 H         1 UNK         0.0809 
     93 H93        27.4037   26.1804   -3.6038 H         1 UNK         0.0809 
     94 H94        26.5728   25.6939   -0.6916 H         1 UNK         0.2990 
     95 H95        23.1317   25.6198   -0.0373 H         1 UNK         0.0690 
     96 H96        23.0572   24.4115   -2.2327 H         1 UNK         0.0788 
     97 H97        23.1137   23.2868   -0.8856 H         1 UNK         0.0788 
     98 H98        24.5639   23.5917   -1.8415 H         1 UNK         0.0788 
     99 H99        25.2176   23.7476    0.5280 H         1 UNK         0.2993 
    100 H100       26.8579   25.5004    3.0820 H         1 UNK         0.0949 
    101 H101       26.1150   23.7251    4.6369 H         1 UNK         0.0767 
    102 H102       24.7968   24.8466    4.3484 H         1 UNK         0.0767 
    103 H103       24.7971   23.2790    3.5510 H         1 UNK         0.0767 
    104 H104       27.0905   22.7949    2.5690 H         1 UNK         0.3013 
    105 H105       26.6559   28.5391    1.6888 H         1 UNK         0.3121 
    106 H106       26.7229   30.2138    3.9872 H         1 UNK         0.0774 
    107 H107       24.2600   30.4643    3.5156 H         1 UNK         0.0815 
    108 H108       24.4830   29.6662    1.9638 H         1 UNK         0.0815 
    109 H109       24.7807   28.7901    3.4655 H         1 UNK         0.0815 
    110 H110       26.9895   31.0116    0.5870 H         1 UNK         0.2987 
    111 H111       26.4781   33.8886    0.9633 H         1 UNK         0.0949 
    112 H112       27.4906   32.2907   -1.4519 H         1 UNK         0.0806 
    113 H113       25.8106   32.7358   -1.1535 H         1 UNK         0.0806 
    114 H114       27.0080   33.9814   -1.4625 H         1 UNK         0.0806 
    115 H115       29.0481   31.8832    1.8010 H         1 UNK         0.3010 
    116 H116       31.0994   34.0165    1.4559 H         1 UNK         0.0829 
    117 H117       32.7461   32.2251    0.9454 H         1 UNK         0.0813 
    118 H118       31.4783   30.9976    1.0116 H         1 UNK         0.0813 
    119 H119       31.4671   32.2220   -0.2504 H         1 UNK         0.0813 
    120 H120       32.4699   31.3628    2.8983 H         1 UNK         0.3038 
    121 H121       31.4795   31.6051    5.5809 H         1 UNK         0.0769 
    122 H122       34.2902   32.6853    4.9085 H         1 UNK         0.0811 
    123 H123       33.6623   32.4392    6.5322 H         1 UNK         0.0811 
    124 H124       32.9452   33.6603    5.4974 H         1 UNK         0.0811 
    125 H125       32.8737   30.1575    6.9983 H         1 UNK         0.3204 
    126 H126       33.2334   27.5903    5.7849 H         1 UNK         0.0748 
    127 H127       33.9683   26.9296    8.0729 H         1 UNK         0.0771 
    128 H128       33.9996   28.6167    8.5653 H         1 UNK         0.0771 
    129 H129       32.4733   27.8490    8.1237 H         1 UNK         0.0771 
    130 H130       34.9609   26.6835    4.8601 H         1 UNK         0.2980 
    131 H131       37.4756   28.1060    4.6258 H         1 UNK         0.0545 
    132 H132       39.7291   26.1851    6.6140 H         1 UNK         0.3459 
    133 H133       39.6010   27.2653    5.2506 H         1 UNK         0.3459 
    134 H134       36.6341   25.3642    3.5547 H         1 UNK         0.0616 
    135 H135       38.1283   26.1769    3.1568 H         1 UNK         0.0616 
    136 H136       34.8758   26.3988    0.3608 H         1 UNK         0.0634 
    137 H137       35.9997   25.1919    0.9365 H         1 UNK         0.0634 
@<TRIPOS>BOND
     1    1    2 1    
     2    1   72 1    
     3    1   73 1    
     4    1   74 1    
     5    2    3 2    
     6    2    4 am   BACKBONE|DICT|INTERRES
     7    4    5 1    
     8    4   75 1    
     9    5    6 1    
    10    5   35 1    
    11    5   76 1    
    12    6    7 1    
    13    6   77 1    
    14    6   78 1    
    15    7    8 1    
    16    8    9 1    
    17    8   79 1    
    18    8   80 1    
    19    9   10 ar   
    20    9   14 ar   
    21   10   11 ar   
    22   10   81 1    
    23   11   12 ar   
    24   11   71 1    
    25   12   13 ar   
    26   12   82 1    
    27   13   14 ar   
    28   13   15 1    
    29   14   83 1    
    30   15   16 1    
    31   15   84 1    
    32   15   85 1    
    33   16   17 1    
    34   17   18 1    
    35   17   86 1    
    36   17   87 1    
    37   18   19 1    
    38   18   37 1    
    39   18   88 1    
    40   19   20 am   BACKBONE|DICT|INTERRES
    41   19   89 1    
    42   20   21 2    
    43   20   22 1    
    44   22   23 1    
    45   22   24 1    
    46   22   90 1    
    47   23   91 1    
    48   23   92 1    
    49   23   93 1    
    50   24   25 am   BACKBONE|DICT|INTERRES
    51   24   94 1    
    52   25   26 2    
    53   25   27 1    
    54   27   28 1    
    55   27   29 1    
    56   27   95 1    
    57   28   96 1    
    58   28   97 1    
    59   28   98 1    
    60   29   30 am   BACKBONE|DICT|INTERRES
    61   29   99 1    
    62   30   31 2    
    63   30   32 1    
    64   32   33 1    
    65   32   34 1    
    66   32  100 1    
    67   33  101 1    
    68   33  102 1    
    69   33  103 1    
    70   34   35 am   BACKBONE|DICT|INTERRES
    71   34  104 1    
    72   35   36 2    
    73   37   38 2    
    74   37   39 am   BACKBONE|DICT|INTERRES
    75   39   40 1    
    76   39  105 1    
    77   40   41 1    
    78   40   42 1    
    79   40  106 1    
    80   41  107 1    
    81   41  108 1    
    82   41  109 1    
    83   42   43 2    
    84   42   44 am   BACKBONE|DICT|INTERRES
    85   44   45 1    
    86   44  110 1    
    87   45   46 1    
    88   45   47 1    
    89   45  111 1    
    90   46  112 1    
    91   46  113 1    
    92   46  114 1    
    93   47   48 2    
    94   47   49 am   BACKBONE|DICT|INTERRES
    95   49   50 1    
    96   49  115 1    
    97   50   51 1    
    98   50   52 1    
    99   50  116 1    
   100   51  117 1    
   101   51  118 1    
   102   51  119 1    
   103   52   53 2    
   104   52   54 am   BACKBONE|DICT|INTERRES
   105   54   55 1    
   106   54  120 1    
   107   55   56 1    
   108   55   57 1    
   109   55  121 1    
   110   56  122 1    
   111   56  123 1    
   112   56  124 1    
   113   57   58 2    
   114   57   59 am   BACKBONE|DICT|INTERRES
   115   59   60 1    
   116   59  125 1    
   117   60   61 1    
   118   60   62 1    
   119   60  126 1    
   120   61  127 1    
   121   61  128 1    
   122   61  129 1    
   123   62   63 2    
   124   62   64 am   BACKBONE|DICT|INTERRES
   125   64   65 1    
   126   64  130 1    
   127   65   66 1    
   128   65   69 1    
   129   65  131 1    
   130   66   67 am   BACKBONE|DICT|INTERRES
   131   66   68 2    
   132   67  132 1    
   133   67  133 1    
   134   69   70 1    
   135   69  134 1    
   136   69  135 1    
   137   70   71 1    
   138   71  136 1    
   139   71  137 1    
@<TRIPOS>SUBSTRUCTURE
     1 UNK         1 GROUP             0       ****    0 ROOT    
