@<TRIPOS>MOLECULE
3R136
137   139    1
SMALL
USER_CHARGES


@<TRIPOS>ATOM
      1 CA         31.4252   27.7227   -2.5448 C.3       0 UNK        -0.1979 
      2 C          30.6725   26.4219   -2.3038 C.2       0 UNK         0.4864 
      3 O          30.2382   25.7858   -3.2655 O.2       0 UNK        -0.5359 
      4 N          30.5238   26.0303   -1.0309 N.am      1 UNK        -0.4318 
      5 CA         29.8283   24.8307   -0.5478 C.3       1 UNK         0.0824 
      6 C6         30.5204   23.5007   -0.9571 C.3       12 UNK        -0.0944 
      7 S7         32.2259   23.3893   -0.3263 S.3       12 UNK        -0.2672 
      8 C8         32.0440   22.1623    1.0050 C.3       12 UNK         0.0333 
      9 C9         31.4213   22.7525    2.2635 C.ar      12 UNK        -0.0807 
     10 C10        32.1734   23.6146    3.0666 C.ar      12 UNK        -0.0894 
     11 C11        31.6667   24.0857    4.2808 C.ar      12 UNK        -0.0804 
     12 C12        30.3880   23.6869    4.6860 C.ar      12 UNK        -0.0824 
     13 C13        29.6128   22.8422    3.8828 C.ar      12 UNK        -0.0762 
     14 C14        30.1331   22.3835    2.6673 C.ar      12 UNK        -0.0782 
     15 C15        28.2433   22.3704    4.3631 C.3       12 UNK         0.0230 
     16 S16        26.8622   23.3035    3.6232 S.3       12 UNK        -0.2608 
     17 C17        27.1710   24.9837    4.2587 C.3       12 UNK        -0.0989 
     18 CA         27.7470   25.8829    3.1332 C.3       5 UNK         0.0716 
     19 N          26.7299   26.3676    2.1936 N.am      5 UNK        -0.4135 
     20 C          25.7469   27.2441    2.4501 C.2       4 UNK         0.5031 
     21 O          25.5227   27.7428    3.5533 O.2       4 UNK        -0.5229 
     22 CA         24.8506   27.6323    1.2644 C.3       4 UNK         0.0329 
     23 CB         25.5496   28.6697    0.3694 C.3       4 UNK        -0.2001 
     24 N          24.4487   26.4781    0.4596 N.am      4 UNK        -0.4303 
     25 C          23.5738   25.5386    0.8515 C.2       3 UNK         0.5044 
     26 O          22.9983   25.5524    1.9402 O.2       3 UNK        -0.5152 
     27 CA         23.2579   24.4048   -0.1438 C.3       3 UNK         0.0319 
     28 CB         21.8819   24.6281   -0.7932 C.3       3 UNK        -0.2001 
     29 N          24.2665   24.2784   -1.1985 N.am      3 UNK        -0.4354 
     30 C          25.4571   23.6873   -1.0378 C.2       2 UNK         0.4964 
     31 O          25.7791   23.0714   -0.0202 O.2       2 UNK        -0.5047 
     32 CA         26.4622   23.8063   -2.2021 C.3       2 UNK         0.0288 
     33 CB         26.1306   24.9345   -3.2076 C.3       2 UNK        -0.2113 
     34 N          27.8433   23.9485   -1.7263 N.am      2 UNK        -0.4145 
     35 C          28.3286   24.8984   -0.9096 C.2       1 UNK         0.5006 
     36 O          27.6476   25.8100   -0.4308 O.2       1 UNK        -0.5103 
     37 C          28.6121   27.0470    3.6511 C.2       5 UNK         0.5055 
     38 O          28.5370   27.4216    4.8228 O.2       5 UNK        -0.5220 
     39 N          29.4118   27.5992    2.7356 N.am      6 UNK        -0.4450 
     40 CA         30.4367   28.6001    2.9875 C.3       6 UNK         0.0367 
     41 CB         29.8695   29.9993    2.7014 C.3       6 UNK        -0.1929 
     42 C          31.6174   28.2991    2.0620 C.2       6 UNK         0.5070 
     43 O          31.4135   27.7154    0.9951 O.2       6 UNK        -0.5237 
     44 N          32.8143   28.7365    2.4607 N.am      7 UNK        -0.4739 
     45 CA         34.0074   28.7510    1.6150 C.3       7 UNK         0.0276 
     46 CB         35.2529   28.4918    2.4791 C.3       7 UNK        -0.1927 
     47 C          34.1104   30.1002    0.8875 C.2       7 UNK         0.5013 
     48 O          34.3464   30.1250   -0.3205 O.2       7 UNK        -0.5193 
     49 N          33.8920   31.1905    1.6334 N.am      8 UNK        -0.4253 
     50 CA         33.8388   32.5667    1.1522 C.3       8 UNK         0.0242 
     51 CB         35.2611   33.1148    0.9210 C.3       8 UNK        -0.2000 
     52 C          33.0745   33.3646    2.2112 C.2       8 UNK         0.4948 
     53 O          33.6632   33.7309    3.2295 O.2       8 UNK        -0.5275 
     54 N          31.7581   33.5269    2.0103 N.am      9 UNK        -0.4246 
     55 CA         30.7552   34.1224    2.9162 C.3       9 UNK         0.0261 
     56 CB         31.0916   35.5859    3.2649 C.3       9 UNK        -0.1959 
     57 C          30.4712   33.2973    4.1894 C.2       9 UNK         0.5033 
     58 O          29.3129   33.1956    4.5946 O.2       9 UNK        -0.5390 
     59 N          31.5121   32.6904    4.7627 N.am      10 UNK        -0.4215 
     60 CA         31.4779   31.6864    5.8205 C.3       10 UNK         0.0240 
     61 CB         31.7947   32.3627    7.1664 C.3       10 UNK        -0.1982 
     62 C          32.5030   30.5932    5.4800 C.2       10 UNK         0.4970 
     63 O          33.2219   30.7116    4.4826 O.2       10 UNK        -0.4916 
     64 N          32.5507   29.5354    6.2960 N.am      11 UNK        -0.4279 
     65 CA         33.5610   28.4647    6.2035 C.3       11 UNK         0.1003 
     66 C          34.9625   28.8574    6.7592 C.2       11 UNK         0.5709 
     67 N          35.1227   29.9880    7.4370 N.am      11 UNK        -0.7358 
     68 O          35.9278   28.1250    6.5574 O.2       11 UNK        -0.4999 
     69 C69        33.0527   27.1450    6.8391 C.3       12 UNK        -0.0954 
     70 S70        31.6984   26.3990    5.8729 S.3       12 UNK        -0.2268 
     71 C71        32.5496   24.9455    5.1803 C.3       12 UNK         0.0203 
     72 H72        30.7608   28.4639   -2.9878 H         1 UNK         0.0888 
     73 H73        31.8308   28.1383   -1.6223 H         1 UNK         0.0888 
     74 H74        32.2554   27.5543   -3.2301 H         1 UNK         0.0888 
     75 H75        30.9032   26.6285   -0.2962 H         1 UNK         0.3017 
     76 H76        29.8652   24.8869    0.5410 H         1 UNK         0.0873 
     77 H77        29.9551   22.6433   -0.5872 H         1 UNK         0.0745 
     78 H78        30.5623   23.3966   -2.0425 H         1 UNK         0.0745 
     79 H79        31.4716   21.3059    0.6453 H         1 UNK         0.0705 
     80 H80        33.0336   21.7751    1.2523 H         1 UNK         0.0705 
     81 H81        33.1730   23.8888    2.7571 H         1 UNK         0.1334 
     82 H82        30.0057   24.0203    5.6410 H         1 UNK         0.1417 
     83 H83        29.5474   21.7093    2.0569 H         1 UNK         0.1562 
     84 H84        28.1767   22.4345    5.4504 H         1 UNK         0.0748 
     85 H85        28.1189   21.3143    4.1191 H         1 UNK         0.0748 
     86 H86        27.8497   24.9170    5.1098 H         1 UNK         0.0940 
     87 H87        26.2435   25.3937    4.6603 H         1 UNK         0.0940 
     88 H88        28.4296   25.2693    2.5427 H         1 UNK         0.0703 
     89 H89        26.8536   26.0662    1.2295 H         1 UNK         0.3081 
     90 H90        23.9462   28.0925    1.6688 H         1 UNK         0.0719 
     91 H91        26.4488   28.2663   -0.0981 H         1 UNK         0.0809 
     92 H92        24.8880   29.0191   -0.4233 H         1 UNK         0.0809 
     93 H93        25.8492   29.5444    0.9486 H         1 UNK         0.0809 
     94 H94        24.8952   26.3729   -0.4394 H         1 UNK         0.2990 
     95 H95        23.2192   23.4718    0.4229 H         1 UNK         0.0690 
     96 H96        21.6180   23.8045   -1.4570 H         1 UNK         0.0788 
     97 H97        21.8525   25.5513   -1.3733 H         1 UNK         0.0788 
     98 H98        21.0993   24.6944   -0.0359 H         1 UNK         0.0788 
     99 H99        24.0717   24.7420   -2.0747 H         1 UNK         0.2993 
    100 H100       26.4168   22.8566   -2.7374 H         1 UNK         0.0949 
    101 H101       26.0753   25.9109   -2.7244 H         1 UNK         0.0767 
    102 H102       26.8937   24.9994   -3.9838 H         1 UNK         0.0767 
    103 H103       25.1825   24.7552   -3.7161 H         1 UNK         0.0767 
    104 H104       28.4845   23.2399   -2.0519 H         1 UNK         0.3013 
    105 H105       29.4355   27.2230    1.7966 H         1 UNK         0.3121 
    106 H106       30.7764   28.5398    4.0228 H         1 UNK         0.0774 
    107 H107       29.4427   30.0644    1.6998 H         1 UNK         0.0815 
    108 H108       30.6501   30.7559    2.7695 H         1 UNK         0.0815 
    109 H109       29.0907   30.2648    3.4167 H         1 UNK         0.0815 
    110 H110       32.8837   29.2558    3.3301 H         1 UNK         0.2987 
    111 H111       33.9441   27.9614    0.8623 H         1 UNK         0.0949 
    112 H112       35.3798   29.2494    3.2537 H         1 UNK         0.0806 
    113 H113       35.1969   27.5199    2.9696 H         1 UNK         0.0806 
    114 H114       36.1568   28.4949    1.8685 H         1 UNK         0.0806 
    115 H115       33.7148   31.0747    2.6282 H         1 UNK         0.3010 
    116 H116       33.2878   32.6035    0.2098 H         1 UNK         0.0829 
    117 H117       35.2305   34.1649    0.6278 H         1 UNK         0.0813 
    118 H118       35.8735   33.0434    1.8208 H         1 UNK         0.0813 
    119 H119       35.7726   32.5716    0.1264 H         1 UNK         0.0813 
    120 H120       31.3727   33.1477    1.1557 H         1 UNK         0.3038 
    121 H121       29.8240   34.1334    2.3471 H         1 UNK         0.0769 
    122 H122       31.9941   35.6674    3.8712 H         1 UNK         0.0811 
    123 H123       30.2811   36.0440    3.8331 H         1 UNK         0.0811 
    124 H124       31.2358   36.1849    2.3658 H         1 UNK         0.0811 
    125 H125       32.4284   32.8441    4.3437 H         1 UNK         0.3204 
    126 H126       30.4906   31.2212    5.8615 H         1 UNK         0.0748 
    127 H127       31.7394   31.6547    7.9939 H         1 UNK         0.0771 
    128 H128       32.7938   32.8010    7.1716 H         1 UNK         0.0771 
    129 H129       31.0827   33.1600    7.3811 H         1 UNK         0.0771 
    130 H130       31.9214   29.4840    7.0836 H         1 UNK         0.2980 
    131 H131       33.7331   28.2592    5.1459 H         1 UNK         0.0545 
    132 H132       34.3431   30.5995    7.6120 H         1 UNK         0.3459 
    133 H133       36.0389   30.2272    7.7822 H         1 UNK         0.3459 
    134 H134       32.6999   27.3209    7.8566 H         1 UNK         0.0616 
    135 H135       33.8591   26.4144    6.9266 H         1 UNK         0.0616 
    136 H136       33.4268   25.2939    4.6325 H         1 UNK         0.0634 
    137 H137       32.9167   24.3247    5.9986 H         1 UNK         0.0634 
@<TRIPOS>BOND
     1    1    2 1    
     2    1   72 1    
     3    1   73 1    
     4    1   74 1    
     5    2    3 2    
     6    2    4 am   BACKBONE|DICT|INTERRES
     7    4    5 1    
     8    4   75 1    
     9    5    6 1    
    10    5   35 1    
    11    5   76 1    
    12    6    7 1    
    13    6   77 1    
    14    6   78 1    
    15    7    8 1    
    16    8    9 1    
    17    8   79 1    
    18    8   80 1    
    19    9   10 ar   
    20    9   14 ar   
    21   10   11 ar   
    22   10   81 1    
    23   11   12 ar   
    24   11   71 1    
    25   12   13 ar   
    26   12   82 1    
    27   13   14 ar   
    28   13   15 1    
    29   14   83 1    
    30   15   16 1    
    31   15   84 1    
    32   15   85 1    
    33   16   17 1    
    34   17   18 1    
    35   17   86 1    
    36   17   87 1    
    37   18   19 1    
    38   18   37 1    
    39   18   88 1    
    40   19   20 am   BACKBONE|DICT|INTERRES
    41   19   89 1    
    42   20   21 2    
    43   20   22 1    
    44   22   23 1    
    45   22   24 1    
    46   22   90 1    
    47   23   91 1    
    48   23   92 1    
    49   23   93 1    
    50   24   25 am   BACKBONE|DICT|INTERRES
    51   24   94 1    
    52   25   26 2    
    53   25   27 1    
    54   27   28 1    
    55   27   29 1    
    56   27   95 1    
    57   28   96 1    
    58   28   97 1    
    59   28   98 1    
    60   29   30 am   BACKBONE|DICT|INTERRES
    61   29   99 1    
    62   30   31 2    
    63   30   32 1    
    64   32   33 1    
    65   32   34 1    
    66   32  100 1    
    67   33  101 1    
    68   33  102 1    
    69   33  103 1    
    70   34   35 am   BACKBONE|DICT|INTERRES
    71   34  104 1    
    72   35   36 2    
    73   37   38 2    
    74   37   39 am   BACKBONE|DICT|INTERRES
    75   39   40 1    
    76   39  105 1    
    77   40   41 1    
    78   40   42 1    
    79   40  106 1    
    80   41  107 1    
    81   41  108 1    
    82   41  109 1    
    83   42   43 2    
    84   42   44 am   BACKBONE|DICT|INTERRES
    85   44   45 1    
    86   44  110 1    
    87   45   46 1    
    88   45   47 1    
    89   45  111 1    
    90   46  112 1    
    91   46  113 1    
    92   46  114 1    
    93   47   48 2    
    94   47   49 am   BACKBONE|DICT|INTERRES
    95   49   50 1    
    96   49  115 1    
    97   50   51 1    
    98   50   52 1    
    99   50  116 1    
   100   51  117 1    
   101   51  118 1    
   102   51  119 1    
   103   52   53 2    
   104   52   54 am   BACKBONE|DICT|INTERRES
   105   54   55 1    
   106   54  120 1    
   107   55   56 1    
   108   55   57 1    
   109   55  121 1    
   110   56  122 1    
   111   56  123 1    
   112   56  124 1    
   113   57   58 2    
   114   57   59 am   BACKBONE|DICT|INTERRES
   115   59   60 1    
   116   59  125 1    
   117   60   61 1    
   118   60   62 1    
   119   60  126 1    
   120   61  127 1    
   121   61  128 1    
   122   61  129 1    
   123   62   63 2    
   124   62   64 am   BACKBONE|DICT|INTERRES
   125   64   65 1    
   126   64  130 1    
   127   65   66 1    
   128   65   69 1    
   129   65  131 1    
   130   66   67 am   BACKBONE|DICT|INTERRES
   131   66   68 2    
   132   67  132 1    
   133   67  133 1    
   134   69   70 1    
   135   69  134 1    
   136   69  135 1    
   137   70   71 1    
   138   71  136 1    
   139   71  137 1    
@<TRIPOS>SUBSTRUCTURE
     1 UNK         1 GROUP             0       ****    0 ROOT    
