@<TRIPOS>MOLECULE
3R136
137   139    1
SMALL
USER_CHARGES


@<TRIPOS>ATOM
      1 CA         30.3968   27.7148   -4.0828 C.3       0 UNK        -0.1979 
      2 C          29.5917   27.0635   -2.9695 C.2       0 UNK         0.4864 
      3 O          28.4137   27.3766   -2.8020 O.2       0 UNK        -0.5359 
      4 N          30.2089   26.1412   -2.2177 N.am      1 UNK        -0.4318 
      5 CA         29.6495   25.4721   -1.0310 C.3       1 UNK         0.0824 
      6 C6         30.7183   24.6437   -0.2813 C.3       12 UNK        -0.0944 
      7 S7         32.1494   25.6464    0.2416 S.3       12 UNK        -0.2672 
      8 C8         32.9897   24.4961    1.3746 C.3       12 UNK         0.0333 
      9 C9         32.2874   24.4159    2.7220 C.ar      12 UNK        -0.0807 
     10 C10        32.5858   25.3448    3.7216 C.ar      12 UNK        -0.0894 
     11 C11        31.9609   25.2734    4.9690 C.ar      12 UNK        -0.0804 
     12 C12        31.0114   24.2762    5.2085 C.ar      12 UNK        -0.0824 
     13 C13        30.6839   23.3574    4.2053 C.ar      12 UNK        -0.0762 
     14 C14        31.3431   23.4166    2.9744 C.ar      12 UNK        -0.0782 
     15 C15        29.5977   22.3164    4.4334 C.3       12 UNK         0.0230 
     16 S16        28.0377   22.7913    3.6142 S.3       12 UNK        -0.2608 
     17 C17        27.6042   24.3145    4.5183 C.3       12 UNK        -0.0989 
     18 CA         27.9175   25.5913    3.6977 C.3       5 UNK         0.0716 
     19 N          26.9942   25.7519    2.5666 N.am      5 UNK        -0.4135 
     20 C          26.9609   26.7941    1.7242 C.2       4 UNK         0.5031 
     21 O          27.7798   27.7186    1.7391 O.2       4 UNK        -0.5229 
     22 CA         25.7937   26.8321    0.7257 C.3       4 UNK         0.0329 
     23 CB         24.4443   26.9598    1.4620 C.3       4 UNK        -0.2001 
     24 N          25.9780   27.9826   -0.1595 N.am      4 UNK        -0.4303 
     25 C          25.5248   28.1752   -1.4050 C.2       3 UNK         0.5044 
     26 O          25.7244   29.2340   -1.9994 O.2       3 UNK        -0.5152 
     27 CA         24.7860   27.0354   -2.1312 C.3       3 UNK         0.0319 
     28 CB         23.9894   27.5197   -3.3596 C.3       3 UNK        -0.2001 
     29 N          25.7744   26.0447   -2.5470 N.am      3 UNK        -0.4354 
     30 C          25.5471   24.7280   -2.6581 C.2       2 UNK         0.4964 
     31 O          24.4415   24.2106   -2.4947 O.2       2 UNK        -0.5047 
     32 CA         26.7511   23.8216   -2.9886 C.3       2 UNK         0.0288 
     33 CB         26.8021   23.5225   -4.4957 C.3       2 UNK        -0.2113 
     34 N          28.0336   24.3910   -2.5685 N.am      2 UNK        -0.4145 
     35 C          28.3905   24.6129   -1.2950 C.2       1 UNK         0.5006 
     36 O          27.7454   24.1895   -0.3354 O.2       1 UNK        -0.5103 
     37 C          27.8883   26.8276    4.6191 C.2       5 UNK         0.5055 
     38 O          26.8035   27.2654    5.0093 O.2       5 UNK        -0.5220 
     39 N          29.0734   27.3819    4.9100 N.am      6 UNK        -0.4450 
     40 CA         29.3494   28.6079    5.6765 C.3       6 UNK         0.0367 
     41 CB         28.8103   28.5194    7.1169 C.3       6 UNK        -0.1929 
     42 C          28.9047   29.9130    4.9883 C.2       6 UNK         0.5070 
     43 O          29.6107   30.9137    5.1067 O.2       6 UNK        -0.5237 
     44 N          27.7908   29.8925    4.2441 N.am      7 UNK        -0.4739 
     45 CA         27.3084   31.0029    3.4133 C.3       7 UNK         0.0276 
     46 CB         25.9170   30.6624    2.8574 C.3       7 UNK        -0.1927 
     47 C          28.2809   31.3602    2.2737 C.2       7 UNK         0.5013 
     48 O          28.4236   32.5370    1.9422 O.2       7 UNK        -0.5193 
     49 N          28.9700   30.3435    1.7385 N.am      8 UNK        -0.4253 
     50 CA         30.0653   30.4639    0.7735 C.3       8 UNK         0.0242 
     51 CB         30.1970   29.1285    0.0217 C.3       8 UNK        -0.2000 
     52 C          31.4150   30.8755    1.4032 C.2       8 UNK         0.4948 
     53 O          32.4106   30.9207    0.6790 O.2       8 UNK        -0.5275 
     54 N          31.4412   31.1592    2.7159 N.am      9 UNK        -0.4246 
     55 CA         32.6121   31.4726    3.5394 C.3       9 UNK         0.0261 
     56 CB         33.3129   32.7699    3.0706 C.3       9 UNK        -0.1959 
     57 C          33.5303   30.2448    3.6749 C.2       9 UNK         0.5033 
     58 O          33.0406   29.1825    4.0610 O.2       9 UNK        -0.5390 
     59 N          34.8338   30.4102    3.4085 N.am      10 UNK        -0.4215 
     60 CA         35.9234   29.4220    3.4697 C.3       10 UNK         0.0240 
     61 CB         35.6766   28.2390    2.5128 C.3       10 UNK        -0.1982 
     62 C          36.2827   28.9352    4.8873 C.2       10 UNK         0.4970 
     63 O          37.4711   28.8600    5.2019 O.2       10 UNK        -0.4916 
     64 N          35.2782   28.6409    5.7214 N.am      11 UNK        -0.4279 
     65 CA         35.4445   28.2706    7.1391 C.3       11 UNK         0.1003 
     66 C          35.8142   29.4599    8.0749 C.2       11 UNK         0.5709 
     67 N          35.7398   30.7098    7.6318 N.am      11 UNK        -0.7358 
     68 O          36.1860   29.2419    9.2257 O.2       11 UNK        -0.4999 
     69 C69        34.2205   27.4936    7.6939 C.3       12 UNK        -0.0954 
     70 S70        33.9147   25.9327    6.8027 S.3       12 UNK        -0.2268 
     71 C71        32.3058   26.2916    6.0419 C.3       12 UNK         0.0203 
     72 H72        29.9200   27.5348   -5.0459 H         1 UNK         0.0888 
     73 H73        30.4484   28.7916   -3.9236 H         1 UNK         0.0888 
     74 H74        31.4152   27.3294   -4.1294 H         1 UNK         0.0888 
     75 H75        31.1784   25.9262   -2.4048 H         1 UNK         0.3017 
     76 H76        29.3187   26.2655   -0.3575 H         1 UNK         0.0873 
     77 H77        30.2732   24.1969    0.6078 H         1 UNK         0.0745 
     78 H78        31.0751   23.8182   -0.9000 H         1 UNK         0.0745 
     79 H79        33.0572   23.5090    0.9147 H         1 UNK         0.0705 
     80 H80        34.0169   24.8351    1.5179 H         1 UNK         0.0705 
     81 H81        33.3105   26.1239    3.5340 H         1 UNK         0.1334 
     82 H82        30.5167   24.2262    6.1690 H         1 UNK         0.1417 
     83 H83        31.0989   22.6973    2.2046 H         1 UNK         0.1562 
     84 H84        29.4201   22.1650    5.4993 H         1 UNK         0.0748 
     85 H85        29.9261   21.3534    4.0396 H         1 UNK         0.0748 
     86 H86        28.1328   24.3159    5.4733 H         1 UNK         0.0940 
     87 H87        26.5439   24.2767    4.7765 H         1 UNK         0.0940 
     88 H88        28.9209   25.5047    3.2752 H         1 UNK         0.0703 
     89 H89        26.2991   25.0276    2.4673 H         1 UNK         0.3081 
     90 H90        25.8136   25.9049    0.1546 H         1 UNK         0.0719 
     91 H91        24.4288   27.8264    2.1242 H         1 UNK         0.0809 
     92 H92        23.6072   27.0607    0.7726 H         1 UNK         0.0809 
     93 H93        24.2433   26.0813    2.0759 H         1 UNK         0.0809 
     94 H94        26.5803   28.6879    0.2441 H         1 UNK         0.2990 
     95 H95        24.0795   26.5855   -1.4330 H         1 UNK         0.0690 
     96 H96        23.2733   28.2932   -3.0796 H         1 UNK         0.0788 
     97 H97        23.4252   26.7044   -3.8126 H         1 UNK         0.0788 
     98 H98        24.6437   27.9384   -4.1254 H         1 UNK         0.0788 
     99 H99        26.7174   26.4065   -2.6794 H         1 UNK         0.2993 
    100 H100       26.6082   22.8804   -2.4531 H         1 UNK         0.0949 
    101 H101       27.6041   22.8239   -4.7352 H         1 UNK         0.0767 
    102 H102       25.8688   23.0708   -4.8352 H         1 UNK         0.0767 
    103 H103       26.9577   24.4291   -5.0823 H         1 UNK         0.0767 
    104 H104       28.6209   24.7744   -3.2945 H         1 UNK         0.3013 
    105 H105       29.8918   26.9584    4.4934 H         1 UNK         0.3121 
    106 H106       30.4363   28.6683    5.7443 H         1 UNK         0.0774 
    107 H107       29.1317   29.3814    7.7029 H         1 UNK         0.0815 
    108 H108       27.7207   28.4994    7.1470 H         1 UNK         0.0815 
    109 H109       29.1778   27.6276    7.6243 H         1 UNK         0.0815 
    110 H110       27.2553   29.0299    4.2308 H         1 UNK         0.2987 
    111 H111       27.2171   31.8823    4.0544 H         1 UNK         0.0949 
    112 H112       25.9440   29.7843    2.2134 H         1 UNK         0.0806 
    113 H113       25.2050   30.4683    3.6597 H         1 UNK         0.0806 
    114 H114       25.5210   31.4886    2.2652 H         1 UNK         0.0806 
    115 H115       28.7231   29.3984    2.0218 H         1 UNK         0.3010 
    116 H116       29.8030   31.2372    0.0486 H         1 UNK         0.0829 
    117 H117       29.2601   28.8570   -0.4652 H         1 UNK         0.0813 
    118 H118       30.9604   29.1815   -0.7554 H         1 UNK         0.0813 
    119 H119       30.4724   28.3156    0.6948 H         1 UNK         0.0813 
    120 H120       30.5795   31.0646    3.2410 H         1 UNK         0.3038 
    121 H121       32.2261   31.6619    4.5421 H         1 UNK         0.0769 
    122 H122       33.7780   32.6643    2.0900 H         1 UNK         0.0811 
    123 H123       34.0858   33.0789    3.7754 H         1 UNK         0.0811 
    124 H124       32.6006   33.5927    3.0061 H         1 UNK         0.0811 
    125 H125       35.1205   31.3360    3.1218 H         1 UNK         0.3204 
    126 H126       36.8048   29.9487    3.1000 H         1 UNK         0.0748 
    127 H127       36.5288   27.5582    2.5056 H         1 UNK         0.0771 
    128 H128       34.8014   27.6579    2.7980 H         1 UNK         0.0771 
    129 H129       35.5269   28.5833    1.4895 H         1 UNK         0.0771 
    130 H130       34.3297   28.7142    5.3642 H         1 UNK         0.2980 
    131 H131       36.2981   27.5920    7.1921 H         1 UNK         0.0545 
    132 H132       35.9878   31.4667    8.2493 H         1 UNK         0.3459 
    133 H133       35.4418   30.9021    6.6901 H         1 UNK         0.3459 
    134 H134       34.3764   27.2319    8.7422 H         1 UNK         0.0616 
    135 H135       33.3278   28.1214    7.6704 H         1 UNK         0.0616 
    136 H136       32.3338   27.2834    5.5953 H         1 UNK         0.0634 
    137 H137       31.5380   26.3195    6.8167 H         1 UNK         0.0634 
@<TRIPOS>BOND
     1    1    2 1    
     2    1   72 1    
     3    1   73 1    
     4    1   74 1    
     5    2    3 2    
     6    2    4 am   BACKBONE|DICT|INTERRES
     7    4    5 1    
     8    4   75 1    
     9    5    6 1    
    10    5   35 1    
    11    5   76 1    
    12    6    7 1    
    13    6   77 1    
    14    6   78 1    
    15    7    8 1    
    16    8    9 1    
    17    8   79 1    
    18    8   80 1    
    19    9   10 ar   
    20    9   14 ar   
    21   10   11 ar   
    22   10   81 1    
    23   11   12 ar   
    24   11   71 1    
    25   12   13 ar   
    26   12   82 1    
    27   13   14 ar   
    28   13   15 1    
    29   14   83 1    
    30   15   16 1    
    31   15   84 1    
    32   15   85 1    
    33   16   17 1    
    34   17   18 1    
    35   17   86 1    
    36   17   87 1    
    37   18   19 1    
    38   18   37 1    
    39   18   88 1    
    40   19   20 am   BACKBONE|DICT|INTERRES
    41   19   89 1    
    42   20   21 2    
    43   20   22 1    
    44   22   23 1    
    45   22   24 1    
    46   22   90 1    
    47   23   91 1    
    48   23   92 1    
    49   23   93 1    
    50   24   25 am   BACKBONE|DICT|INTERRES
    51   24   94 1    
    52   25   26 2    
    53   25   27 1    
    54   27   28 1    
    55   27   29 1    
    56   27   95 1    
    57   28   96 1    
    58   28   97 1    
    59   28   98 1    
    60   29   30 am   BACKBONE|DICT|INTERRES
    61   29   99 1    
    62   30   31 2    
    63   30   32 1    
    64   32   33 1    
    65   32   34 1    
    66   32  100 1    
    67   33  101 1    
    68   33  102 1    
    69   33  103 1    
    70   34   35 am   BACKBONE|DICT|INTERRES
    71   34  104 1    
    72   35   36 2    
    73   37   38 2    
    74   37   39 am   BACKBONE|DICT|INTERRES
    75   39   40 1    
    76   39  105 1    
    77   40   41 1    
    78   40   42 1    
    79   40  106 1    
    80   41  107 1    
    81   41  108 1    
    82   41  109 1    
    83   42   43 2    
    84   42   44 am   BACKBONE|DICT|INTERRES
    85   44   45 1    
    86   44  110 1    
    87   45   46 1    
    88   45   47 1    
    89   45  111 1    
    90   46  112 1    
    91   46  113 1    
    92   46  114 1    
    93   47   48 2    
    94   47   49 am   BACKBONE|DICT|INTERRES
    95   49   50 1    
    96   49  115 1    
    97   50   51 1    
    98   50   52 1    
    99   50  116 1    
   100   51  117 1    
   101   51  118 1    
   102   51  119 1    
   103   52   53 2    
   104   52   54 am   BACKBONE|DICT|INTERRES
   105   54   55 1    
   106   54  120 1    
   107   55   56 1    
   108   55   57 1    
   109   55  121 1    
   110   56  122 1    
   111   56  123 1    
   112   56  124 1    
   113   57   58 2    
   114   57   59 am   BACKBONE|DICT|INTERRES
   115   59   60 1    
   116   59  125 1    
   117   60   61 1    
   118   60   62 1    
   119   60  126 1    
   120   61  127 1    
   121   61  128 1    
   122   61  129 1    
   123   62   63 2    
   124   62   64 am   BACKBONE|DICT|INTERRES
   125   64   65 1    
   126   64  130 1    
   127   65   66 1    
   128   65   69 1    
   129   65  131 1    
   130   66   67 am   BACKBONE|DICT|INTERRES
   131   66   68 2    
   132   67  132 1    
   133   67  133 1    
   134   69   70 1    
   135   69  134 1    
   136   69  135 1    
   137   70   71 1    
   138   71  136 1    
   139   71  137 1    
@<TRIPOS>SUBSTRUCTURE
     1 UNK         1 GROUP             0       ****    0 ROOT    
