@<TRIPOS>MOLECULE
3R136
137   139    1
SMALL
USER_CHARGES


@<TRIPOS>ATOM
      1 CA         27.7145   21.3802   -1.3051 C.3       0 UNK        -0.1979 
      2 C          27.8272   22.5292   -0.3159 C.2       0 UNK         0.4864 
      3 O          27.6906   23.6887   -0.7114 O.2       0 UNK        -0.5359 
      4 N          28.0588   22.2172    0.9678 N.am      1 UNK        -0.4318 
      5 CA         28.2702   23.1476    2.0897 C.3       1 UNK         0.0824 
      6 C6         28.9214   22.4374    3.3090 C.3       12 UNK        -0.0944 
      7 S7         30.4056   21.4520    2.9022 S.3       12 UNK        -0.2672 
      8 C8         31.7772   22.4650    3.5661 C.3       12 UNK         0.0333 
      9 C9         32.3873   23.4876    2.6023 C.ar      12 UNK        -0.0807 
     10 C10        33.2407   24.4671    3.1242 C.ar      12 UNK        -0.0894 
     11 C11        33.8848   25.3888    2.2860 C.ar      12 UNK        -0.0804 
     12 C12        33.6429   25.3353    0.9116 C.ar      12 UNK        -0.0824 
     13 C13        32.7834   24.3771    0.3727 C.ar      12 UNK        -0.0762 
     14 C14        32.1693   23.4492    1.2189 C.ar      12 UNK        -0.0782 
     15 C15        32.5055   24.3536   -1.1251 C.3       12 UNK         0.0230 
     16 S16        31.6524   25.8611   -1.6998 S.3       12 UNK        -0.2608 
     17 C17        30.2130   25.9262   -0.5843 C.3       12 UNK        -0.0989 
     18 CA         30.1114   27.2949    0.1433 C.3       5 UNK         0.0716 
     19 N          29.2003   28.1700   -0.5964 N.am      5 UNK        -0.4135 
     20 C          28.6882   29.3448   -0.2158 C.2       4 UNK         0.5031 
     21 O          29.1039   29.9996    0.7403 O.2       4 UNK        -0.5229 
     22 CA         27.4506   29.8431   -0.9848 C.3       4 UNK         0.0329 
     23 CB         27.8519   30.6178   -2.2540 C.3       4 UNK        -0.2001 
     24 N          26.4639   28.7822   -1.2634 N.am      4 UNK        -0.4303 
     25 C          26.5740   27.7208   -2.0768 C.2       3 UNK         0.5044 
     26 O          27.5567   27.5029   -2.7878 O.2       3 UNK        -0.5152 
     27 CA         25.4334   26.6906   -2.0127 C.3       3 UNK         0.0319 
     28 CB         25.4682   25.7028   -3.1937 C.3       3 UNK        -0.2001 
     29 N          25.4983   25.9265   -0.7647 N.am      3 UNK        -0.4354 
     30 C          25.0411   26.3564    0.4226 C.2       2 UNK         0.4964 
     31 O          24.5201   27.4612    0.5812 O.2       2 UNK        -0.5047 
     32 CA         25.1732   25.4152    1.6303 C.3       2 UNK         0.0288 
     33 CB         23.8924   24.5800    1.8131 C.3       2 UNK        -0.2113 
     34 N          26.3398   24.5461    1.5056 N.am      2 UNK        -0.4145 
     35 C          26.9812   23.9135    2.4908 C.2       1 UNK         0.5006 
     36 O          26.5944   23.9144    3.6619 O.2       1 UNK        -0.5103 
     37 C          29.6101   27.1084    1.5889 C.2       5 UNK         0.5055 
     38 O          28.4610   26.7036    1.7665 O.2       5 UNK        -0.5220 
     39 N          30.4424   27.4499    2.5826 N.am      6 UNK        -0.4450 
     40 CA         30.1818   27.4384    4.0305 C.3       6 UNK         0.0367 
     41 CB         29.8158   26.0293    4.5321 C.3       6 UNK        -0.1929 
     42 C          29.1544   28.4820    4.5149 C.2       6 UNK         0.5070 
     43 O          29.3533   29.0599    5.5826 O.2       6 UNK        -0.5237 
     44 N          28.0785   28.7008    3.7489 N.am      7 UNK        -0.4739 
     45 CA         26.9875   29.6277    4.0577 C.3       7 UNK         0.0276 
     46 CB         25.8097   29.3609    3.1074 C.3       7 UNK        -0.1927 
     47 C          27.4071   31.1053    3.9989 C.2       7 UNK         0.5013 
     48 O          27.0479   31.8703    4.8950 O.2       7 UNK        -0.5193 
     49 N          28.1505   31.4723    2.9492 N.am      8 UNK        -0.4253 
     50 CA         28.7102   32.8070    2.7347 C.3       8 UNK         0.0242 
     51 CB         28.2265   33.3618    1.3836 C.3       8 UNK        -0.2000 
     52 C          30.2399   32.7354    2.7852 C.2       8 UNK         0.4948 
     53 O          30.8640   33.5073    3.5150 O.2       8 UNK        -0.5275 
     54 N          30.8206   31.7756    2.0526 N.am      9 UNK        -0.4246 
     55 CA         32.2398   31.4308    2.0872 C.3       9 UNK         0.0261 
     56 CB         32.6252   30.7625    0.7551 C.3       9 UNK        -0.1959 
     57 C          32.5146   30.5302    3.3015 C.2       9 UNK         0.5033 
     58 O          32.7266   29.3270    3.1442 O.2       9 UNK        -0.5390 
     59 N          32.4396   31.1229    4.4976 N.am      10 UNK        -0.4215 
     60 CA         32.6067   30.4590    5.7878 C.3       10 UNK         0.0240 
     61 CB         31.9119   31.3028    6.8722 C.3       10 UNK        -0.1982 
     62 C          34.0923   30.2150    6.0977 C.2       10 UNK         0.4970 
     63 O          34.7080   31.0077    6.8131 O.2       10 UNK        -0.4916 
     64 N          34.6432   29.1300    5.5418 N.am      11 UNK        -0.4279 
     65 CA         36.0211   28.6710    5.7861 C.3       11 UNK         0.1003 
     66 C          36.2921   28.0977    7.2101 C.2       11 UNK         0.5709 
     67 N          35.2786   27.8118    8.0196 N.am      11 UNK        -0.7358 
     68 O          37.4474   27.9236    7.5912 O.2       11 UNK        -0.4999 
     69 C69        36.5190   27.7167    4.6683 C.3       12 UNK        -0.0954 
     70 S70        35.5090   26.2060    4.4737 S.3       12 UNK        -0.2268 
     71 C71        34.8319   26.4723    2.8019 C.3       12 UNK         0.0203 
     72 H72        28.4655   21.4868   -2.0873 H         1 UNK         0.0888 
     73 H73        27.8588   20.4124   -0.8252 H         1 UNK         0.0888 
     74 H74        26.7308   21.3849   -1.7737 H         1 UNK         0.0888 
     75 H75        28.1428   21.2422    1.2181 H         1 UNK         0.3017 
     76 H76        28.9762   23.9074    1.7502 H         1 UNK         0.0873 
     77 H77        29.1729   23.1638    4.0827 H         1 UNK         0.0745 
     78 H78        28.2053   21.7533    3.7687 H         1 UNK         0.0745 
     79 H79        31.4523   22.9601    4.4822 H         1 UNK         0.0705 
     80 H80        32.5733   21.7812    3.8632 H         1 UNK         0.0705 
     81 H81        33.4081   24.4951    4.1914 H         1 UNK         0.1334 
     82 H82        34.1176   26.0508    0.2534 H         1 UNK         0.1417 
     83 H83        31.5214   22.6995    0.7879 H         1 UNK         0.1562 
     84 H84        31.9018   23.4856   -1.3953 H         1 UNK         0.0748 
     85 H85        33.4481   24.2513   -1.6645 H         1 UNK         0.0748 
     86 H86        30.2621   25.0937    0.1165 H         1 UNK         0.0940 
     87 H87        29.3163   25.7222   -1.1726 H         1 UNK         0.0940 
     88 H88        31.0898   27.7756    0.1804 H         1 UNK         0.0703 
     89 H89        28.7759   27.7568   -1.4227 H         1 UNK         0.3081 
     90 H90        26.9410   30.5464   -0.3242 H         1 UNK         0.0719 
     91 H91        28.4025   29.9961   -2.9604 H         1 UNK         0.0809 
     92 H92        26.9770   31.0154   -2.7681 H         1 UNK         0.0809 
     93 H93        28.4929   31.4641   -2.0032 H         1 UNK         0.0809 
     94 H94        25.6466   28.7902   -0.6619 H         1 UNK         0.2990 
     95 H95        24.4868   27.2336   -2.0588 H         1 UNK         0.0690 
     96 H96        24.6130   25.0271   -3.1698 H         1 UNK         0.0788 
     97 H97        26.3745   25.0951   -3.1870 H         1 UNK         0.0788 
     98 H98        25.4361   26.2322   -4.1469 H         1 UNK         0.0788 
     99 H99        25.9504   25.0241   -0.8324 H         1 UNK         0.2993 
    100 H100       25.3147   26.0433    2.5120 H         1 UNK         0.0949 
    101 H101       23.9306   23.9854    2.7259 H         1 UNK         0.0767 
    102 H102       23.0138   25.2227    1.8841 H         1 UNK         0.0767 
    103 H103       23.7348   23.8990    0.9758 H         1 UNK         0.0767 
    104 H104       26.7826   24.4892    0.5910 H         1 UNK         0.3013 
    105 H105       31.3439   27.8493    2.3432 H         1 UNK         0.3121 
    106 H106       31.1328   27.6999    4.4944 H         1 UNK         0.0774 
    107 H107       29.7875   26.0019    5.6220 H         1 UNK         0.0815 
    108 H108       28.8351   25.7124    4.1781 H         1 UNK         0.0815 
    109 H109       30.5484   25.2925    4.2063 H         1 UNK         0.0815 
    110 H110       27.9922   28.1342    2.9091 H         1 UNK         0.2987 
    111 H111       26.6548   29.4232    5.0778 H         1 UNK         0.0949 
    112 H112       26.0983   29.4692    2.0613 H         1 UNK         0.0806 
    113 H113       25.4147   28.3546    3.2420 H         1 UNK         0.0806 
    114 H114       24.9891   30.0551    3.2940 H         1 UNK         0.0806 
    115 H115       28.4124   30.7631    2.2687 H         1 UNK         0.3010 
    116 H116       28.3848   33.4920    3.5206 H         1 UNK         0.0829 
    117 H117       27.1403   33.4509    1.3618 H         1 UNK         0.0813 
    118 H118       28.6370   34.3559    1.2017 H         1 UNK         0.0813 
    119 H119       28.5246   32.7274    0.5482 H         1 UNK         0.0813 
    120 H120       30.2253   31.1545    1.5068 H         1 UNK         0.3038 
    121 H121       32.8373   32.3387    2.1947 H         1 UNK         0.0769 
    122 H122       32.0317   29.8693    0.5643 H         1 UNK         0.0811 
    123 H123       33.6745   30.4646    0.7563 H         1 UNK         0.0811 
    124 H124       32.4808   31.4428   -0.0843 H         1 UNK         0.0811 
    125 H125       32.2144   32.1110    4.5171 H         1 UNK         0.3204 
    126 H126       32.1065   29.4896    5.7565 H         1 UNK         0.0748 
    127 H127       30.8426   31.3901    6.6760 H         1 UNK         0.0771 
    128 H128       32.0227   30.8429    7.8552 H         1 UNK         0.0771 
    129 H129       32.3248   32.3106    6.9329 H         1 UNK         0.0771 
    130 H130       34.0851   28.5634    4.9171 H         1 UNK         0.2980 
    131 H131       36.6521   29.5599    5.7244 H         1 UNK         0.0545 
    132 H132       35.4703   27.4476    8.9393 H         1 UNK         0.3459 
    133 H133       34.3281   27.9411    7.7149 H         1 UNK         0.3459 
    134 H134       37.5516   27.4147    4.8526 H         1 UNK         0.0616 
    135 H135       36.5448   28.2584    3.7216 H         1 UNK         0.0616 
    136 H136       34.3097   27.4261    2.7797 H         1 UNK         0.0634 
    137 H137       35.6738   26.5651    2.1138 H         1 UNK         0.0634 
@<TRIPOS>BOND
     1    1    2 1    
     2    1   72 1    
     3    1   73 1    
     4    1   74 1    
     5    2    3 2    
     6    2    4 am   BACKBONE|DICT|INTERRES
     7    4    5 1    
     8    4   75 1    
     9    5    6 1    
    10    5   35 1    
    11    5   76 1    
    12    6    7 1    
    13    6   77 1    
    14    6   78 1    
    15    7    8 1    
    16    8    9 1    
    17    8   79 1    
    18    8   80 1    
    19    9   10 ar   
    20    9   14 ar   
    21   10   11 ar   
    22   10   81 1    
    23   11   12 ar   
    24   11   71 1    
    25   12   13 ar   
    26   12   82 1    
    27   13   14 ar   
    28   13   15 1    
    29   14   83 1    
    30   15   16 1    
    31   15   84 1    
    32   15   85 1    
    33   16   17 1    
    34   17   18 1    
    35   17   86 1    
    36   17   87 1    
    37   18   19 1    
    38   18   37 1    
    39   18   88 1    
    40   19   20 am   BACKBONE|DICT|INTERRES
    41   19   89 1    
    42   20   21 2    
    43   20   22 1    
    44   22   23 1    
    45   22   24 1    
    46   22   90 1    
    47   23   91 1    
    48   23   92 1    
    49   23   93 1    
    50   24   25 am   BACKBONE|DICT|INTERRES
    51   24   94 1    
    52   25   26 2    
    53   25   27 1    
    54   27   28 1    
    55   27   29 1    
    56   27   95 1    
    57   28   96 1    
    58   28   97 1    
    59   28   98 1    
    60   29   30 am   BACKBONE|DICT|INTERRES
    61   29   99 1    
    62   30   31 2    
    63   30   32 1    
    64   32   33 1    
    65   32   34 1    
    66   32  100 1    
    67   33  101 1    
    68   33  102 1    
    69   33  103 1    
    70   34   35 am   BACKBONE|DICT|INTERRES
    71   34  104 1    
    72   35   36 2    
    73   37   38 2    
    74   37   39 am   BACKBONE|DICT|INTERRES
    75   39   40 1    
    76   39  105 1    
    77   40   41 1    
    78   40   42 1    
    79   40  106 1    
    80   41  107 1    
    81   41  108 1    
    82   41  109 1    
    83   42   43 2    
    84   42   44 am   BACKBONE|DICT|INTERRES
    85   44   45 1    
    86   44  110 1    
    87   45   46 1    
    88   45   47 1    
    89   45  111 1    
    90   46  112 1    
    91   46  113 1    
    92   46  114 1    
    93   47   48 2    
    94   47   49 am   BACKBONE|DICT|INTERRES
    95   49   50 1    
    96   49  115 1    
    97   50   51 1    
    98   50   52 1    
    99   50  116 1    
   100   51  117 1    
   101   51  118 1    
   102   51  119 1    
   103   52   53 2    
   104   52   54 am   BACKBONE|DICT|INTERRES
   105   54   55 1    
   106   54  120 1    
   107   55   56 1    
   108   55   57 1    
   109   55  121 1    
   110   56  122 1    
   111   56  123 1    
   112   56  124 1    
   113   57   58 2    
   114   57   59 am   BACKBONE|DICT|INTERRES
   115   59   60 1    
   116   59  125 1    
   117   60   61 1    
   118   60   62 1    
   119   60  126 1    
   120   61  127 1    
   121   61  128 1    
   122   61  129 1    
   123   62   63 2    
   124   62   64 am   BACKBONE|DICT|INTERRES
   125   64   65 1    
   126   64  130 1    
   127   65   66 1    
   128   65   69 1    
   129   65  131 1    
   130   66   67 am   BACKBONE|DICT|INTERRES
   131   66   68 2    
   132   67  132 1    
   133   67  133 1    
   134   69   70 1    
   135   69  134 1    
   136   69  135 1    
   137   70   71 1    
   138   71  136 1    
   139   71  137 1    
@<TRIPOS>SUBSTRUCTURE
     1 UNK         1 GROUP             0       ****    0 ROOT    
