@<TRIPOS>MOLECULE
3R136
137   139    1
SMALL
USER_CHARGES


@<TRIPOS>ATOM
      1 CA         29.0012   25.4842    4.5222 C.3       0 UNK        -0.1979 
      2 C          28.6679   24.2781    3.6591 C.2       0 UNK         0.4864 
      3 O          27.7116   23.5584    3.9552 O.2       0 UNK        -0.5359 
      4 N          29.4365   24.0560    2.5836 N.am      1 UNK        -0.4318 
      5 CA         29.2077   23.0082    1.5808 C.3       1 UNK         0.0824 
      6 C6         30.4798   22.6976    0.7498 C.3       12 UNK        -0.0944 
      7 S7         31.7725   21.8821    1.7473 S.3       12 UNK        -0.2672 
      8 C8         33.1338   23.0884    1.6908 C.3       12 UNK         0.0333 
      9 C9         32.8254   24.3172    2.5304 C.ar      12 UNK        -0.0807 
     10 C10        32.9738   24.2697    3.9185 C.ar      12 UNK        -0.0894 
     11 C11        32.6921   25.3942    4.6964 C.ar      12 UNK        -0.0804 
     12 C12        32.2354   26.5606    4.0768 C.ar      12 UNK        -0.0824 
     13 C13        32.0908   26.6319    2.6879 C.ar      12 UNK        -0.0762 
     14 C14        32.3998   25.5002    1.9201 C.ar      12 UNK        -0.0782 
     15 C15        31.6317   27.9588    2.0771 C.3       12 UNK         0.0230 
     16 S16        31.3651   27.9579    0.2721 S.3       12 UNK        -0.2608 
     17 C17        29.7346   27.1545    0.1218 C.3       12 UNK        -0.0989 
     18 CA         28.7168   28.0866   -0.5863 C.3       5 UNK         0.0716 
     19 N          27.7690   27.3342   -1.4120 N.am      5 UNK        -0.4135 
     20 C          27.4855   27.6115   -2.6938 C.2       4 UNK         0.5031 
     21 O          28.0455   28.4892   -3.3522 O.2       4 UNK        -0.5229 
     22 CA         26.3793   26.7774   -3.3678 C.3       4 UNK         0.0329 
     23 CB         26.9806   25.5306   -4.0366 C.3       4 UNK        -0.2001 
     24 N          25.3281   26.3635   -2.4388 N.am      4 UNK        -0.4303 
     25 C          24.5002   27.1935   -1.7876 C.2       3 UNK         0.5044 
     26 O          24.4279   28.4011   -2.0137 O.2       3 UNK        -0.5152 
     27 CA         23.6236   26.5827   -0.6754 C.3       3 UNK         0.0319 
     28 CB         22.1558   26.5082   -1.1261 C.3       3 UNK        -0.2001 
     29 N          24.0546   25.2528   -0.2235 N.am      3 UNK        -0.4354 
     30 C          25.2298   24.9673    0.3555 C.2       2 UNK         0.4964 
     31 O          26.0895   25.8197    0.5970 O.2       2 UNK        -0.5047 
     32 CA         25.4716   23.4829    0.6884 C.3       2 UNK         0.0288 
     33 CB         25.2226   22.5642   -0.5296 C.3       2 UNK        -0.2113 
     34 N          26.7972   23.2255    1.2617 N.am      2 UNK        -0.4145 
     35 C          28.0008   23.3694    0.6871 C.2       1 UNK         0.5006 
     36 O          28.1805   23.7715   -0.4655 O.2       1 UNK        -0.5103 
     37 C          27.9588   28.9921    0.4036 C.2       5 UNK         0.5055 
     38 O          28.3027   30.1681    0.5340 O.2       5 UNK        -0.5220 
     39 N          26.9149   28.4451    1.0469 N.am      6 UNK        -0.4450 
     40 CA         26.0134   29.1087    1.9925 C.3       6 UNK         0.0367 
     41 CB         25.0945   30.1046    1.2464 C.3       6 UNK        -0.1929 
     42 C          26.7624   29.7177    3.1972 C.2       6 UNK         0.5070 
     43 O          27.6351   29.0590    3.7654 O.2       6 UNK        -0.5237 
     44 N          26.3969   30.9483    3.5790 N.am      7 UNK        -0.4739 
     45 CA         26.9438   31.6787    4.7251 C.3       7 UNK         0.0276 
     46 CB         25.9340   32.7594    5.1476 C.3       7 UNK        -0.1927 
     47 C          28.3282   32.3050    4.4757 C.2       7 UNK         0.5013 
     48 O          28.9424   32.7806    5.4328 O.2       7 UNK        -0.5193 
     49 N          28.8098   32.3095    3.2236 N.am      8 UNK        -0.4253 
     50 CA         30.1187   32.8407    2.8275 C.3       8 UNK         0.0242 
     51 CB         30.0854   33.1962    1.3294 C.3       8 UNK        -0.2000 
     52 C          31.2486   31.8540    3.1811 C.2       8 UNK         0.4948 
     53 O          31.9090   31.3214    2.2883 O.2       8 UNK        -0.5275 
     54 N          31.4111   31.5973    4.4849 N.am      9 UNK        -0.4246 
     55 CA         32.3349   30.6208    5.0579 C.3       9 UNK         0.0261 
     56 CB         32.0528   30.4853    6.5631 C.3       9 UNK        -0.1959 
     57 C          33.8161   30.9516    4.8091 C.2       9 UNK         0.5033 
     58 O          34.1925   32.1244    4.7395 O.2       9 UNK        -0.5390 
     59 N          34.6235   29.8909    4.7317 N.am      10 UNK        -0.4215 
     60 CA         36.0757   29.9066    4.5623 C.3       10 UNK         0.0240 
     61 CB         36.4716   30.2980    3.1250 C.3       10 UNK        -0.1982 
     62 C          36.6133   28.5222    4.9382 C.2       10 UNK         0.4970 
     63 O          37.5283   28.4250    5.7556 O.2       10 UNK        -0.4916 
     64 N          35.9772   27.4835    4.3763 N.am      11 UNK        -0.4279 
     65 CA         36.1347   26.0620    4.7292 C.3       11 UNK         0.1003 
     66 C          37.5055   25.4281    4.3437 C.2       11 UNK         0.5709 
     67 N          38.3104   26.0593    3.4972 N.am      11 UNK        -0.7358 
     68 O          37.8342   24.3314    4.7905 O.2       11 UNK        -0.4999 
     69 C69        35.7104   25.7331    6.1952 C.3       12 UNK        -0.0954 
     70 S70        34.1617   26.5341    6.7520 S.3       12 UNK        -0.2268 
     71 C71        32.8846   25.3564    6.2055 C.3       12 UNK         0.0203 
     72 H72        29.7409   25.2174    5.2759 H         1 UNK         0.0888 
     73 H73        29.3892   26.3055    3.9206 H         1 UNK         0.0888 
     74 H74        28.1087   25.8459    5.0324 H         1 UNK         0.0888 
     75 H75        30.2400   24.6463    2.4198 H         1 UNK         0.3017 
     76 H76        28.9385   22.0896    2.1078 H         1 UNK         0.0873 
     77 H77        30.2413   22.0145   -0.0680 H         1 UNK         0.0745 
     78 H78        30.8689   23.6012    0.2783 H         1 UNK         0.0745 
     79 H79        33.3405   23.3612    0.6547 H         1 UNK         0.0705 
     80 H80        34.0411   22.6123    2.0658 H         1 UNK         0.0705 
     81 H81        33.3148   23.3575    4.3892 H         1 UNK         0.1334 
     82 H82        32.0006   27.4189    4.6890 H         1 UNK         0.1417 
     83 H83        32.3149   25.5245    0.8433 H         1 UNK         0.1562 
     84 H84        32.4003   28.7028    2.2882 H         1 UNK         0.0748 
     85 H85        30.7229   28.3059    2.5726 H         1 UNK         0.0748 
     86 H86        29.3726   26.8101    1.0928 H         1 UNK         0.0940 
     87 H87        29.8891   26.2489   -0.4680 H         1 UNK         0.0940 
     88 H88        29.2781   28.7585   -1.2395 H         1 UNK         0.0703 
     89 H89        27.2463   26.6027   -0.9436 H         1 UNK         0.3081 
     90 H90        25.9194   27.3970   -4.1407 H         1 UNK         0.0719 
     91 H91        27.4370   24.8603   -3.3062 H         1 UNK         0.0809 
     92 H92        26.2234   24.9679   -4.5830 H         1 UNK         0.0809 
     93 H93        27.7554   25.8081   -4.7528 H         1 UNK         0.0809 
     94 H94        25.2964   25.3839   -2.1988 H         1 UNK         0.2990 
     95 H95        23.6838   27.2551    0.1827 H         1 UNK         0.0690 
     96 H96        21.5084   26.1663   -0.3183 H         1 UNK         0.0788 
     97 H97        22.0269   25.8312   -1.9716 H         1 UNK         0.0788 
     98 H98        21.7914   27.4889   -1.4358 H         1 UNK         0.0788 
     99 H99        23.4026   24.4977   -0.3825 H         1 UNK         0.2993 
    100 H100       24.7533   23.2199    1.4666 H         1 UNK         0.0949 
    101 H101       24.1796   22.5875   -0.8462 H         1 UNK         0.0767 
    102 H102       25.8307   22.8513   -1.3884 H         1 UNK         0.0767 
    103 H103       25.4552   21.5257   -0.2927 H         1 UNK         0.0767 
    104 H104       26.8073   23.0211    2.2571 H         1 UNK         0.3013 
    105 H105       26.7155   27.4565    0.9001 H         1 UNK         0.3121 
    106 H106       25.3796   28.3212    2.4029 H         1 UNK         0.0774 
    107 H107       24.3110   30.4929    1.8982 H         1 UNK         0.0815 
    108 H108       25.6500   30.9525    0.8436 H         1 UNK         0.0815 
    109 H109       24.5909   29.6209    0.4105 H         1 UNK         0.0815 
    110 H110       25.6787   31.4186    3.0466 H         1 UNK         0.2987 
    111 H111       27.0592   30.9782    5.5554 H         1 UNK         0.0949 
    112 H112       25.7745   33.4947    4.3578 H         1 UNK         0.0806 
    113 H113       24.9678   32.3232    5.4023 H         1 UNK         0.0806 
    114 H114       26.2834   33.2996    6.0288 H         1 UNK         0.0806 
    115 H115       28.2782   31.8383    2.5035 H         1 UNK         0.3010 
    116 H116       30.3080   33.7638    3.3802 H         1 UNK         0.0829 
    117 H117       29.3052   33.9253    1.1105 H         1 UNK         0.0813 
    118 H118       31.0339   33.6311    1.0116 H         1 UNK         0.0813 
    119 H119       29.9074   32.3172    0.7090 H         1 UNK         0.0813 
    120 H120       30.7934   32.0793    5.1301 H         1 UNK         0.3038 
    121 H121       32.1128   29.6677    4.5789 H         1 UNK         0.0769 
    122 H122       32.2317   31.4232    7.0907 H         1 UNK         0.0811 
    123 H123       32.6926   29.7278    7.0184 H         1 UNK         0.0811 
    124 H124       31.0204   30.1876    6.7487 H         1 UNK         0.0811 
    125 H125       34.2293   28.9776    4.9117 H         1 UNK         0.3204 
    126 H126       36.4997   30.6334    5.2586 H         1 UNK         0.0748 
    127 H127       37.5532   30.2508    2.9916 H         1 UNK         0.0771 
    128 H128       36.0190   29.6394    2.3829 H         1 UNK         0.0771 
    129 H129       36.1642   31.3179    2.8930 H         1 UNK         0.0771 
    130 H130       35.2989   27.6645    3.6516 H         1 UNK         0.2980 
    131 H131       35.4314   25.5477    4.0769 H         1 UNK         0.0545 
    132 H132       39.1901   25.6373    3.2449 H         1 UNK         0.3459 
    133 H133       38.0520   26.9559    3.1185 H         1 UNK         0.3459 
    134 H134       36.4965   26.0442    6.8852 H         1 UNK         0.0616 
    135 H135       35.6082   24.6546    6.3268 H         1 UNK         0.0616 
    136 H136       31.9415   25.6138    6.6891 H         1 UNK         0.0634 
    137 H137       33.1436   24.3535    6.5485 H         1 UNK         0.0634 
@<TRIPOS>BOND
     1    1    2 1    
     2    1   72 1    
     3    1   73 1    
     4    1   74 1    
     5    2    3 2    
     6    2    4 am   BACKBONE|DICT|INTERRES
     7    4    5 1    
     8    4   75 1    
     9    5    6 1    
    10    5   35 1    
    11    5   76 1    
    12    6    7 1    
    13    6   77 1    
    14    6   78 1    
    15    7    8 1    
    16    8    9 1    
    17    8   79 1    
    18    8   80 1    
    19    9   10 ar   
    20    9   14 ar   
    21   10   11 ar   
    22   10   81 1    
    23   11   12 ar   
    24   11   71 1    
    25   12   13 ar   
    26   12   82 1    
    27   13   14 ar   
    28   13   15 1    
    29   14   83 1    
    30   15   16 1    
    31   15   84 1    
    32   15   85 1    
    33   16   17 1    
    34   17   18 1    
    35   17   86 1    
    36   17   87 1    
    37   18   19 1    
    38   18   37 1    
    39   18   88 1    
    40   19   20 am   BACKBONE|DICT|INTERRES
    41   19   89 1    
    42   20   21 2    
    43   20   22 1    
    44   22   23 1    
    45   22   24 1    
    46   22   90 1    
    47   23   91 1    
    48   23   92 1    
    49   23   93 1    
    50   24   25 am   BACKBONE|DICT|INTERRES
    51   24   94 1    
    52   25   26 2    
    53   25   27 1    
    54   27   28 1    
    55   27   29 1    
    56   27   95 1    
    57   28   96 1    
    58   28   97 1    
    59   28   98 1    
    60   29   30 am   BACKBONE|DICT|INTERRES
    61   29   99 1    
    62   30   31 2    
    63   30   32 1    
    64   32   33 1    
    65   32   34 1    
    66   32  100 1    
    67   33  101 1    
    68   33  102 1    
    69   33  103 1    
    70   34   35 am   BACKBONE|DICT|INTERRES
    71   34  104 1    
    72   35   36 2    
    73   37   38 2    
    74   37   39 am   BACKBONE|DICT|INTERRES
    75   39   40 1    
    76   39  105 1    
    77   40   41 1    
    78   40   42 1    
    79   40  106 1    
    80   41  107 1    
    81   41  108 1    
    82   41  109 1    
    83   42   43 2    
    84   42   44 am   BACKBONE|DICT|INTERRES
    85   44   45 1    
    86   44  110 1    
    87   45   46 1    
    88   45   47 1    
    89   45  111 1    
    90   46  112 1    
    91   46  113 1    
    92   46  114 1    
    93   47   48 2    
    94   47   49 am   BACKBONE|DICT|INTERRES
    95   49   50 1    
    96   49  115 1    
    97   50   51 1    
    98   50   52 1    
    99   50  116 1    
   100   51  117 1    
   101   51  118 1    
   102   51  119 1    
   103   52   53 2    
   104   52   54 am   BACKBONE|DICT|INTERRES
   105   54   55 1    
   106   54  120 1    
   107   55   56 1    
   108   55   57 1    
   109   55  121 1    
   110   56  122 1    
   111   56  123 1    
   112   56  124 1    
   113   57   58 2    
   114   57   59 am   BACKBONE|DICT|INTERRES
   115   59   60 1    
   116   59  125 1    
   117   60   61 1    
   118   60   62 1    
   119   60  126 1    
   120   61  127 1    
   121   61  128 1    
   122   61  129 1    
   123   62   63 2    
   124   62   64 am   BACKBONE|DICT|INTERRES
   125   64   65 1    
   126   64  130 1    
   127   65   66 1    
   128   65   69 1    
   129   65  131 1    
   130   66   67 am   BACKBONE|DICT|INTERRES
   131   66   68 2    
   132   67  132 1    
   133   67  133 1    
   134   69   70 1    
   135   69  134 1    
   136   69  135 1    
   137   70   71 1    
   138   71  136 1    
   139   71  137 1    
@<TRIPOS>SUBSTRUCTURE
     1 UNK         1 GROUP             0       ****    0 ROOT    
