@<TRIPOS>MOLECULE
3R136
137   139    1
SMALL
USER_CHARGES


@<TRIPOS>ATOM
      1 CA         26.9939   16.9050    2.2872 C.3       0 UNK        -0.1979 
      2 C          26.8544   18.2417    1.5736 C.2       0 UNK         0.4864 
      3 O          25.7372   18.6494    1.2504 O.2       0 UNK        -0.5359 
      4 N          27.9793   18.9206    1.3173 N.am      1 UNK        -0.4318 
      5 CA         28.0399   20.2538    0.7115 C.3       1 UNK         0.0824 
      6 C6         29.4526   20.5745    0.1511 C.3       12 UNK        -0.0944 
      7 S7         30.8322   20.2498    1.3082 S.3       12 UNK        -0.2672 
      8 C8         32.2368   21.0038    0.4260 C.3       12 UNK         0.0333 
      9 C9         32.4127   22.4693    0.7975 C.ar      12 UNK        -0.0807 
     10 C10        33.2464   22.8290    1.8616 C.ar      12 UNK        -0.0894 
     11 C11        33.4029   24.1718    2.2197 C.ar      12 UNK        -0.0804 
     12 C12        32.7191   25.1589    1.5038 C.ar      12 UNK        -0.0824 
     13 C13        31.8746   24.8099    0.4476 C.ar      12 UNK        -0.0762 
     14 C14        31.7390   23.4665    0.0867 C.ar      12 UNK        -0.0782 
     15 C15        31.0498   25.8735   -0.2555 C.3       12 UNK         0.0230 
     16 S16        32.0133   26.8194   -1.4719 S.3       12 UNK        -0.2608 
     17 C17        32.2360   28.4128   -0.6124 C.3       12 UNK        -0.0989 
     18 CA         31.1028   29.4272   -0.9489 C.3       5 UNK         0.0716 
     19 N          30.0718   29.4860    0.0854 N.am      5 UNK        -0.4135 
     20 C          28.9481   28.7650    0.1147 C.2       4 UNK         0.5031 
     21 O          28.6196   27.9551   -0.7539 O.2       4 UNK        -0.5229 
     22 CA         28.0293   28.9738    1.3292 C.3       4 UNK         0.0329 
     23 CB         26.5994   29.3375    0.8940 C.3       4 UNK        -0.2001 
     24 N          27.9924   27.7720    2.1615 N.am      4 UNK        -0.4303 
     25 C          28.9769   27.3818    2.9827 C.2       3 UNK         0.5044 
     26 O          29.9985   28.0419    3.1814 O.2       3 UNK        -0.5152 
     27 CA         28.7893   26.0629    3.7551 C.3       3 UNK         0.0319 
     28 CB         28.5868   26.3436    5.2537 C.3       3 UNK        -0.2001 
     29 N          27.6893   25.2197    3.2749 N.am      3 UNK        -0.4354 
     30 C          27.7428   24.4795    2.1604 C.2       2 UNK         0.4964 
     31 O          28.6873   24.4958    1.3719 O.2       2 UNK        -0.5047 
     32 CA         26.5209   23.5990    1.8569 C.3       2 UNK         0.0288 
     33 CB         25.4935   24.3781    1.0185 C.3       2 UNK        -0.2113 
     34 N          26.9247   22.3959    1.1262 N.am      2 UNK        -0.4145 
     35 C          27.5407   21.3443    1.6843 C.2       1 UNK         0.5006 
     36 O          27.7280   21.2257    2.8994 O.2       1 UNK        -0.5103 
     37 C          31.6249   30.8627   -1.0733 C.2       5 UNK         0.5055 
     38 O          32.3653   31.3101   -0.1958 O.2       5 UNK        -0.5220 
     39 N          31.1752   31.5768   -2.1161 N.am      6 UNK        -0.4450 
     40 CA         31.3775   33.0070   -2.4047 C.3       6 UNK         0.0367 
     41 CB         32.8700   33.3737   -2.5299 C.3       6 UNK        -0.1929 
     42 C          30.6455   33.9355   -1.4174 C.2       6 UNK         0.5070 
     43 O          29.8911   34.8057   -1.8531 O.2       6 UNK        -0.5237 
     44 N          30.8471   33.7082   -0.1172 N.am      7 UNK        -0.4739 
     45 CA         30.0834   34.2866    0.9831 C.3       7 UNK         0.0276 
     46 CB         31.0636   34.8434    2.0282 C.3       7 UNK        -0.1927 
     47 C          29.2134   33.1867    1.6057 C.2       7 UNK         0.5013 
     48 O          29.5816   32.0085    1.5540 O.2       7 UNK        -0.5193 
     49 N          28.0864   33.5887    2.2054 N.am      8 UNK        -0.4253 
     50 CA         27.2068   32.7044    2.9706 C.3       8 UNK         0.0242 
     51 CB         25.8676   33.4115    3.2339 C.3       8 UNK        -0.2000 
     52 C          27.8780   32.2941    4.2908 C.2       8 UNK         0.4948 
     53 O          28.4062   33.1637    4.9877 O.2       8 UNK        -0.5275 
     54 N          27.8373   30.9891    4.6003 N.am      9 UNK        -0.4246 
     55 CA         28.4652   30.3430    5.7620 C.3       9 UNK         0.0261 
     56 CB         27.7233   30.7210    7.0618 C.3       9 UNK        -0.1959 
     57 C          29.9870   30.5921    5.8401 C.2       9 UNK         0.5033 
     58 O          30.5082   30.9230    6.9071 O.2       9 UNK        -0.5390 
     59 N          30.6674   30.4428    4.6954 N.am      10 UNK        -0.4215 
     60 CA         32.1168   30.5866    4.5605 C.3       10 UNK         0.0240 
     61 CB         32.4826   30.7183    3.0737 C.3       10 UNK        -0.1982 
     62 C          32.8790   29.4173    5.2016 C.2       10 UNK         0.4970 
     63 O          33.9211   29.6443    5.8177 O.2       10 UNK        -0.4916 
     64 N          32.3496   28.1966    5.0453 N.am      11 UNK        -0.4279 
     65 CA         32.8797   26.9799    5.6737 C.3       11 UNK         0.1003 
     66 C          32.6645   26.9722    7.2121 C.2       11 UNK         0.5709 
     67 N          33.6490   26.5238    7.9790 N.am      11 UNK        -0.7358 
     68 O          31.5989   27.3322    7.7088 O.2       11 UNK        -0.4999 
     69 C69        32.2951   25.7089    5.0054 C.3       12 UNK        -0.0954 
     70 S70        33.4800   24.3231    4.9927 S.3       12 UNK        -0.2268 
     71 C71        34.3048   24.5530    3.3846 C.3       12 UNK         0.0203 
     72 H72        26.5803   16.1060    1.6725 H         1 UNK         0.0888 
     73 H73        28.0353   16.6640    2.5006 H         1 UNK         0.0888 
     74 H74        26.4506   16.9257    3.2315 H         1 UNK         0.0888 
     75 H75        28.8681   18.5598    1.6349 H         1 UNK         0.3017 
     76 H76        27.3523   20.2470   -0.1376 H         1 UNK         0.0873 
     77 H77        29.4995   21.6104   -0.1869 H         1 UNK         0.0745 
     78 H78        29.6268   19.9685   -0.7394 H         1 UNK         0.0745 
     79 H79        32.1056   20.8940   -0.6516 H         1 UNK         0.0705 
     80 H80        33.1427   20.4500    0.6769 H         1 UNK         0.0705 
     81 H81        33.7654   22.0624    2.4211 H         1 UNK         0.1334 
     82 H82        32.8231   26.1984    1.7824 H         1 UNK         0.1417 
     83 H83        31.0846   23.1974   -0.7303 H         1 UNK         0.1562 
     84 H84        30.6227   26.5352    0.4966 H         1 UNK         0.0748 
     85 H85        30.1987   25.4200   -0.7660 H         1 UNK         0.0748 
     86 H86        33.2109   28.7873   -0.9323 H         1 UNK         0.0940 
     87 H87        32.3281   28.2588    0.4641 H         1 UNK         0.0940 
     88 H88        30.6452   29.1604   -1.9044 H         1 UNK         0.0703 
     89 H89        30.2051   30.2124    0.7844 H         1 UNK         0.3081 
     90 H90        28.4172   29.7925    1.9345 H         1 UNK         0.0719 
     91 H91        25.9528   29.5174    1.7528 H         1 UNK         0.0809 
     92 H92        26.5975   30.2454    0.2893 H         1 UNK         0.0809 
     93 H93        26.1451   28.5472    0.2947 H         1 UNK         0.0809 
     94 H94        27.2090   27.1504    2.0287 H         1 UNK         0.2990 
     95 H95        29.7147   25.4969    3.6370 H         1 UNK         0.0690 
     96 H96        29.3950   26.9566    5.6557 H         1 UNK         0.0788 
     97 H97        28.5740   25.4183    5.8301 H         1 UNK         0.0788 
     98 H98        27.6508   26.8698    5.4439 H         1 UNK         0.0788 
     99 H99        26.8687   25.1668    3.8619 H         1 UNK         0.2993 
    100 H100       26.0552   23.2976    2.7981 H         1 UNK         0.0949 
    101 H101       25.9184   24.7191    0.0731 H         1 UNK         0.0767 
    102 H102       24.6200   23.7659    0.7926 H         1 UNK         0.0767 
    103 H103       25.1386   25.2601    1.5532 H         1 UNK         0.0767 
    104 H104       26.8426   22.4370    0.1208 H         1 UNK         0.3013 
    105 H105       30.5407   31.1120   -2.7518 H         1 UNK         0.3121 
    106 H106       30.9237   33.1739   -3.3832 H         1 UNK         0.0774 
    107 H107       33.4010   33.2766   -1.5827 H         1 UNK         0.0815 
    108 H108       32.9867   34.4075   -2.8576 H         1 UNK         0.0815 
    109 H109       33.3731   32.7428   -3.2625 H         1 UNK         0.0815 
    110 H110       31.4348   32.9127    0.1243 H         1 UNK         0.2987 
    111 H111       29.4396   35.0934    0.6259 H         1 UNK         0.0949 
    112 H112       31.7165   34.0653    2.4256 H         1 UNK         0.0806 
    113 H113       31.6947   35.6232    1.6017 H         1 UNK         0.0806 
    114 H114       30.5299   35.2829    2.8721 H         1 UNK         0.0806 
    115 H115       27.8770   34.5757    2.2437 H         1 UNK         0.3010 
    116 H116       27.0112   31.8150    2.3700 H         1 UNK         0.0829 
    117 H117       25.1857   32.7620    3.7845 H         1 UNK         0.0813 
    118 H118       25.9988   34.3199    3.8237 H         1 UNK         0.0813 
    119 H119       25.3721   33.6843    2.3019 H         1 UNK         0.0813 
    120 H120       27.3561   30.3657    3.9682 H         1 UNK         0.3038 
    121 H121       28.3439   29.2693    5.6192 H         1 UNK         0.0769 
    122 H122       27.8298   31.7810    7.2948 H         1 UNK         0.0811 
    123 H123       28.1148   30.1606    7.9117 H         1 UNK         0.0811 
    124 H124       26.6588   30.4984    6.9908 H         1 UNK         0.0811 
    125 H125       30.1728   30.1077    3.8786 H         1 UNK         0.3204 
    126 H126       32.4191   31.5042    5.0697 H         1 UNK         0.0748 
    127 H127       32.0232   31.6008    2.6299 H         1 UNK         0.0771 
    128 H128       33.5606   30.8177    2.9408 H         1 UNK         0.0771 
    129 H129       32.1616   29.8501    2.4969 H         1 UNK         0.0771 
    130 H130       31.4920   28.1030    4.5119 H         1 UNK         0.2980 
    131 H131       33.9556   26.9967    5.4865 H         1 UNK         0.0545 
    132 H132       33.5194   26.4980    8.9781 H         1 UNK         0.3459 
    133 H133       34.5152   26.2012    7.5766 H         1 UNK         0.3459 
    134 H134       31.3814   25.3782    5.5018 H         1 UNK         0.0616 
    135 H135       32.0026   25.9200    3.9790 H         1 UNK         0.0616 
    136 H136       34.6405   25.5873    3.2926 H         1 UNK         0.0634 
    137 H137       35.2053   23.9376    3.3622 H         1 UNK         0.0634 
@<TRIPOS>BOND
     1    1    2 1    
     2    1   72 1    
     3    1   73 1    
     4    1   74 1    
     5    2    3 2    
     6    2    4 am   BACKBONE|DICT|INTERRES
     7    4    5 1    
     8    4   75 1    
     9    5    6 1    
    10    5   35 1    
    11    5   76 1    
    12    6    7 1    
    13    6   77 1    
    14    6   78 1    
    15    7    8 1    
    16    8    9 1    
    17    8   79 1    
    18    8   80 1    
    19    9   10 ar   
    20    9   14 ar   
    21   10   11 ar   
    22   10   81 1    
    23   11   12 ar   
    24   11   71 1    
    25   12   13 ar   
    26   12   82 1    
    27   13   14 ar   
    28   13   15 1    
    29   14   83 1    
    30   15   16 1    
    31   15   84 1    
    32   15   85 1    
    33   16   17 1    
    34   17   18 1    
    35   17   86 1    
    36   17   87 1    
    37   18   19 1    
    38   18   37 1    
    39   18   88 1    
    40   19   20 am   BACKBONE|DICT|INTERRES
    41   19   89 1    
    42   20   21 2    
    43   20   22 1    
    44   22   23 1    
    45   22   24 1    
    46   22   90 1    
    47   23   91 1    
    48   23   92 1    
    49   23   93 1    
    50   24   25 am   BACKBONE|DICT|INTERRES
    51   24   94 1    
    52   25   26 2    
    53   25   27 1    
    54   27   28 1    
    55   27   29 1    
    56   27   95 1    
    57   28   96 1    
    58   28   97 1    
    59   28   98 1    
    60   29   30 am   BACKBONE|DICT|INTERRES
    61   29   99 1    
    62   30   31 2    
    63   30   32 1    
    64   32   33 1    
    65   32   34 1    
    66   32  100 1    
    67   33  101 1    
    68   33  102 1    
    69   33  103 1    
    70   34   35 am   BACKBONE|DICT|INTERRES
    71   34  104 1    
    72   35   36 2    
    73   37   38 2    
    74   37   39 am   BACKBONE|DICT|INTERRES
    75   39   40 1    
    76   39  105 1    
    77   40   41 1    
    78   40   42 1    
    79   40  106 1    
    80   41  107 1    
    81   41  108 1    
    82   41  109 1    
    83   42   43 2    
    84   42   44 am   BACKBONE|DICT|INTERRES
    85   44   45 1    
    86   44  110 1    
    87   45   46 1    
    88   45   47 1    
    89   45  111 1    
    90   46  112 1    
    91   46  113 1    
    92   46  114 1    
    93   47   48 2    
    94   47   49 am   BACKBONE|DICT|INTERRES
    95   49   50 1    
    96   49  115 1    
    97   50   51 1    
    98   50   52 1    
    99   50  116 1    
   100   51  117 1    
   101   51  118 1    
   102   51  119 1    
   103   52   53 2    
   104   52   54 am   BACKBONE|DICT|INTERRES
   105   54   55 1    
   106   54  120 1    
   107   55   56 1    
   108   55   57 1    
   109   55  121 1    
   110   56  122 1    
   111   56  123 1    
   112   56  124 1    
   113   57   58 2    
   114   57   59 am   BACKBONE|DICT|INTERRES
   115   59   60 1    
   116   59  125 1    
   117   60   61 1    
   118   60   62 1    
   119   60  126 1    
   120   61  127 1    
   121   61  128 1    
   122   61  129 1    
   123   62   63 2    
   124   62   64 am   BACKBONE|DICT|INTERRES
   125   64   65 1    
   126   64  130 1    
   127   65   66 1    
   128   65   69 1    
   129   65  131 1    
   130   66   67 am   BACKBONE|DICT|INTERRES
   131   66   68 2    
   132   67  132 1    
   133   67  133 1    
   134   69   70 1    
   135   69  134 1    
   136   69  135 1    
   137   70   71 1    
   138   71  136 1    
   139   71  137 1    
@<TRIPOS>SUBSTRUCTURE
     1 UNK         1 GROUP             0       ****    0 ROOT    
