@<TRIPOS>MOLECULE
3R136
137   139    1
SMALL
USER_CHARGES


@<TRIPOS>ATOM
      1 CA         31.1435   28.0283    0.1464 C.3       0 UNK        -0.1979 
      2 C          30.2551   26.7949    0.1273 C.2       0 UNK         0.4864 
      3 O          29.0506   26.9142    0.3554 O.2       0 UNK        -0.5359 
      4 N          30.8284   25.6127   -0.1490 N.am      1 UNK        -0.4318 
      5 CA         30.1508   24.3056   -0.1279 C.3       1 UNK         0.0824 
      6 C6         31.1134   23.1258   -0.4120 C.3       12 UNK        -0.0944 
      7 S7         32.5069   23.0412    0.7590 S.3       12 UNK        -0.2672 
      8 C8         31.7766   22.0975    2.1345 C.3       12 UNK         0.0333 
      9 C9         31.9278   22.8502    3.4469 C.ar      12 UNK        -0.0807 
     10 C10        32.9661   22.5363    4.3287 C.ar      12 UNK        -0.0894 
     11 C11        33.1080   23.2289    5.5359 C.ar      12 UNK        -0.0804 
     12 C12        32.2109   24.2549    5.8518 C.ar      12 UNK        -0.0824 
     13 C13        31.1713   24.5784    4.9737 C.ar      12 UNK        -0.0762 
     14 C14        31.0277   23.8651    3.7811 C.ar      12 UNK        -0.0782 
     15 C15        30.1984   25.6986    5.2975 C.3       12 UNK         0.0230 
     16 S16        30.5952   27.1917    4.3391 S.3       12 UNK        -0.2608 
     17 C17        29.1595   28.2448    4.7378 C.3       12 UNK        -0.0989 
     18 CA         28.2527   28.5277    3.5062 C.3       5 UNK         0.0716 
     19 N          27.7662   27.3192    2.8300 N.am      5 UNK        -0.4135 
     20 C          26.9384   26.3868    3.3219 C.2       4 UNK         0.5031 
     21 O          26.5125   26.3912    4.4781 O.2       4 UNK        -0.5229 
     22 CA         26.4867   25.2837    2.3356 C.3       4 UNK         0.0329 
     23 CB         25.2054   24.5615    2.8008 C.3       4 UNK        -0.2001 
     24 N          26.3262   25.7591    0.9518 N.am      4 UNK        -0.4303 
     25 C          25.5947   26.8079    0.5381 C.2       3 UNK         0.5044 
     26 O          24.8944   27.4780    1.2950 O.2       3 UNK        -0.5152 
     27 CA         25.6961   27.2306   -0.9385 C.3       3 UNK         0.0319 
     28 CB         25.9334   28.7469   -1.0608 C.3       3 UNK        -0.2001 
     29 N          26.7853   26.5376   -1.6264 N.am      3 UNK        -0.4354 
     30 C          26.6403   25.7047   -2.6660 C.2       2 UNK         0.4964 
     31 O          25.5605   25.4602   -3.2052 O.2       2 UNK        -0.5047 
     32 CA         27.9108   25.0120   -3.1977 C.3       2 UNK         0.0288 
     33 CB         28.4350   25.7403   -4.4463 C.3       2 UNK        -0.2113 
     34 N          28.9957   24.9062   -2.2161 N.am      2 UNK        -0.4145 
     35 C          28.9296   24.2224   -1.0640 C.2       1 UNK         0.5006 
     36 O          27.9385   23.5869   -0.7018 O.2       1 UNK        -0.5103 
     37 C          27.1379   29.5576    3.8238 C.2       5 UNK         0.5055 
     38 O          27.3712   30.4542    4.6365 O.2       5 UNK        -0.5220 
     39 N          25.9605   29.4638    3.1788 N.am      6 UNK        -0.4450 
     40 CA         24.9172   30.4986    3.2454 C.3       6 UNK         0.0367 
     41 CB         23.5670   29.9235    2.7904 C.3       6 UNK        -0.1929 
     42 C          25.2849   31.7365    2.4068 C.2       6 UNK         0.5070 
     43 O          24.8503   32.8425    2.7293 O.2       6 UNK        -0.5237 
     44 N          26.1010   31.5262    1.3690 N.am      7 UNK        -0.4739 
     45 CA         26.8158   32.5466    0.6148 C.3       7 UNK         0.0276 
     46 CB         26.2578   32.6201   -0.8156 C.3       7 UNK        -0.1927 
     47 C          28.2883   32.1215    0.6126 C.2       7 UNK         0.5013 
     48 O          28.5638   30.9231    0.4962 O.2       7 UNK        -0.5193 
     49 N          29.1943   33.0995    0.7554 N.am      8 UNK        -0.4253 
     50 CA         30.6419   32.9244    0.9446 C.3       8 UNK         0.0242 
     51 CB         31.2972   32.3703   -0.3426 C.3       8 UNK        -0.2000 
     52 C          30.9595   32.0980    2.2120 C.2       8 UNK         0.4948 
     53 O          30.1853   32.1357    3.1711 O.2       8 UNK        -0.5275 
     54 N          32.0872   31.3813    2.2096 N.am      9 UNK        -0.4246 
     55 CA         32.4912   30.4390    3.2466 C.3       9 UNK         0.0261 
     56 CB         33.0321   31.1792    4.4849 C.3       9 UNK        -0.1959 
     57 C          33.5590   29.5191    2.6510 C.2       9 UNK         0.5033 
     58 O          34.3938   29.9936    1.8763 O.2       9 UNK        -0.5390 
     59 N          33.5172   28.2358    3.0241 N.am      10 UNK        -0.4215 
     60 CA         34.5214   27.2384    2.6577 C.3       10 UNK         0.0240 
     61 CB         33.8400   25.8820    2.4162 C.3       10 UNK        -0.1982 
     62 C          35.5898   27.1668    3.7558 C.2       10 UNK         0.4970 
     63 O          36.6897   27.6872    3.5674 O.2       10 UNK        -0.4916 
     64 N          35.2354   26.5479    4.8891 N.am      11 UNK        -0.4279 
     65 CA         36.0949   26.4210    6.0772 C.3       11 UNK         0.1003 
     66 C          36.2281   27.7226    6.9217 C.2       11 UNK         0.5709 
     67 N          35.4388   28.7617    6.6765 N.am      11 UNK        -0.7358 
     68 O          37.0724   27.7928    7.8118 O.2       11 UNK        -0.4999 
     69 C69        35.6660   25.2246    6.9651 C.3       12 UNK        -0.0954 
     70 S70        35.7994   23.6255    6.0966 S.3       12 UNK        -0.2268 
     71 C71        34.2123   22.8363    6.5063 C.3       12 UNK         0.0203 
     72 H72        30.8657   28.7002   -0.6650 H         1 UNK         0.0888 
     73 H73        31.0102   28.5630    1.0862 H         1 UNK         0.0888 
     74 H74        32.1988   27.7777    0.0418 H         1 UNK         0.0888 
     75 H75        31.8214   25.5740   -0.3305 H         1 UNK         0.3017 
     76 H76        29.7580   24.1808    0.8815 H         1 UNK         0.0873 
     77 H77        31.5303   23.2118   -1.4174 H         1 UNK         0.0745 
     78 H78        30.5826   22.1715   -0.3908 H         1 UNK         0.0745 
     79 H79        30.7197   21.8989    1.9513 H         1 UNK         0.0705 
     80 H80        32.2629   21.1226    2.1928 H         1 UNK         0.0705 
     81 H81        33.6640   21.7488    4.0784 H         1 UNK         0.1334 
     82 H82        32.3160   24.7952    6.7827 H         1 UNK         0.1417 
     83 H83        30.2245   24.1193    3.1054 H         1 UNK         0.1562 
     84 H84        30.2200   25.9353    6.3624 H         1 UNK         0.0748 
     85 H85        29.1819   25.3739    5.0720 H         1 UNK         0.0748 
     86 H86        29.5584   29.1791    5.1378 H         1 UNK         0.0940 
     87 H87        28.5789   27.7999    5.5477 H         1 UNK         0.0940 
     88 H88        28.8773   29.0268    2.7630 H         1 UNK         0.0703 
     89 H89        28.1002   27.2002    1.8738 H         1 UNK         0.3081 
     90 H90        27.2937   24.5500    2.3140 H         1 UNK         0.0719 
     91 H91        24.9219   23.7706    2.1065 H         1 UNK         0.0809 
     92 H92        24.3642   25.2503    2.8869 H         1 UNK         0.0809 
     93 H93        25.3480   24.0973    3.7775 H         1 UNK         0.0809 
     94 H94        26.8661   25.2585    0.2567 H         1 UNK         0.2990 
     95 H95        24.7342   26.9947   -1.3975 H         1 UNK         0.0690 
     96 H96        25.9848   29.0554   -2.1050 H         1 UNK         0.0788 
     97 H97        26.8654   29.0454   -0.5791 H         1 UNK         0.0788 
     98 H98        25.1253   29.3154   -0.5984 H         1 UNK         0.0788 
     99 H99        27.7085   26.6728   -1.2264 H         1 UNK         0.2993 
    100 H100       27.6259   23.9974   -3.4849 H         1 UNK         0.0949 
    101 H101       27.6605   25.8104   -5.2117 H         1 UNK         0.0767 
    102 H102       28.7574   26.7565   -4.2151 H         1 UNK         0.0767 
    103 H103       29.2786   25.2115   -4.8905 H         1 UNK         0.0767 
    104 H104       29.8452   25.4123   -2.4212 H         1 UNK         0.3013 
    105 H105       25.7822   28.6823    2.5531 H         1 UNK         0.3121 
    106 H106       24.8121   30.8173    4.2847 H         1 UNK         0.0774 
    107 H107       22.7642   30.6417    2.9612 H         1 UNK         0.0815 
    108 H108       23.5651   29.6868    1.7260 H         1 UNK         0.0815 
    109 H109       23.3141   29.0155    3.3381 H         1 UNK         0.0815 
    110 H110       26.4571   30.5902    1.2267 H         1 UNK         0.2987 
    111 H111       26.7181   33.5211    1.0986 H         1 UNK         0.0949 
    112 H112       26.3831   31.6770   -1.3486 H         1 UNK         0.0806 
    113 H113       25.1956   32.8648   -0.8133 H         1 UNK         0.0806 
    114 H114       26.7687   33.3914   -1.3932 H         1 UNK         0.0806 
    115 H115       28.8584   34.0463    0.8645 H         1 UNK         0.3010 
    116 H116       31.0487   33.9209    1.1231 H         1 UNK         0.0829 
    117 H117       30.9859   32.9403   -1.2180 H         1 UNK         0.0813 
    118 H118       32.3849   32.4336   -0.2976 H         1 UNK         0.0813 
    119 H119       31.0324   31.3269   -0.5181 H         1 UNK         0.0813 
    120 H120       32.6972   31.3952    1.4014 H         1 UNK         0.3038 
    121 H121       31.6212   29.8443    3.5300 H         1 UNK         0.0769 
    122 H122       33.3374   30.4749    5.2589 H         1 UNK         0.0811 
    123 H123       32.2765   31.8293    4.9259 H         1 UNK         0.0811 
    124 H124       33.8991   31.7935    4.2388 H         1 UNK         0.0811 
    125 H125       32.7765   27.9302    3.6432 H         1 UNK         0.3204 
    126 H126       35.0176   27.5268    1.7283 H         1 UNK         0.0748 
    127 H127       34.5737   25.1044    2.1992 H         1 UNK         0.0771 
    128 H128       33.2591   25.5513    3.2751 H         1 UNK         0.0771 
    129 H129       33.1625   25.9324    1.5658 H         1 UNK         0.0771 
    130 H130       34.3230   26.1234    4.9559 H         1 UNK         0.2980 
    131 H131       37.1053   26.2081    5.7225 H         1 UNK         0.0545 
    132 H132       35.5406   29.5982    7.2290 H         1 UNK         0.3459 
    133 H133       34.7478   28.7137    5.9480 H         1 UNK         0.3459 
    134 H134       34.6481   25.3715    7.3286 H         1 UNK         0.0616 
    135 H135       36.2977   25.1564    7.8527 H         1 UNK         0.0616 
    136 H136       34.3490   21.7543    6.4772 H         1 UNK         0.0634 
    137 H137       33.9307   23.0735    7.5334 H         1 UNK         0.0634 
@<TRIPOS>BOND
     1    1    2 1    
     2    1   72 1    
     3    1   73 1    
     4    1   74 1    
     5    2    3 2    
     6    2    4 am   BACKBONE|DICT|INTERRES
     7    4    5 1    
     8    4   75 1    
     9    5    6 1    
    10    5   35 1    
    11    5   76 1    
    12    6    7 1    
    13    6   77 1    
    14    6   78 1    
    15    7    8 1    
    16    8    9 1    
    17    8   79 1    
    18    8   80 1    
    19    9   10 ar   
    20    9   14 ar   
    21   10   11 ar   
    22   10   81 1    
    23   11   12 ar   
    24   11   71 1    
    25   12   13 ar   
    26   12   82 1    
    27   13   14 ar   
    28   13   15 1    
    29   14   83 1    
    30   15   16 1    
    31   15   84 1    
    32   15   85 1    
    33   16   17 1    
    34   17   18 1    
    35   17   86 1    
    36   17   87 1    
    37   18   19 1    
    38   18   37 1    
    39   18   88 1    
    40   19   20 am   BACKBONE|DICT|INTERRES
    41   19   89 1    
    42   20   21 2    
    43   20   22 1    
    44   22   23 1    
    45   22   24 1    
    46   22   90 1    
    47   23   91 1    
    48   23   92 1    
    49   23   93 1    
    50   24   25 am   BACKBONE|DICT|INTERRES
    51   24   94 1    
    52   25   26 2    
    53   25   27 1    
    54   27   28 1    
    55   27   29 1    
    56   27   95 1    
    57   28   96 1    
    58   28   97 1    
    59   28   98 1    
    60   29   30 am   BACKBONE|DICT|INTERRES
    61   29   99 1    
    62   30   31 2    
    63   30   32 1    
    64   32   33 1    
    65   32   34 1    
    66   32  100 1    
    67   33  101 1    
    68   33  102 1    
    69   33  103 1    
    70   34   35 am   BACKBONE|DICT|INTERRES
    71   34  104 1    
    72   35   36 2    
    73   37   38 2    
    74   37   39 am   BACKBONE|DICT|INTERRES
    75   39   40 1    
    76   39  105 1    
    77   40   41 1    
    78   40   42 1    
    79   40  106 1    
    80   41  107 1    
    81   41  108 1    
    82   41  109 1    
    83   42   43 2    
    84   42   44 am   BACKBONE|DICT|INTERRES
    85   44   45 1    
    86   44  110 1    
    87   45   46 1    
    88   45   47 1    
    89   45  111 1    
    90   46  112 1    
    91   46  113 1    
    92   46  114 1    
    93   47   48 2    
    94   47   49 am   BACKBONE|DICT|INTERRES
    95   49   50 1    
    96   49  115 1    
    97   50   51 1    
    98   50   52 1    
    99   50  116 1    
   100   51  117 1    
   101   51  118 1    
   102   51  119 1    
   103   52   53 2    
   104   52   54 am   BACKBONE|DICT|INTERRES
   105   54   55 1    
   106   54  120 1    
   107   55   56 1    
   108   55   57 1    
   109   55  121 1    
   110   56  122 1    
   111   56  123 1    
   112   56  124 1    
   113   57   58 2    
   114   57   59 am   BACKBONE|DICT|INTERRES
   115   59   60 1    
   116   59  125 1    
   117   60   61 1    
   118   60   62 1    
   119   60  126 1    
   120   61  127 1    
   121   61  128 1    
   122   61  129 1    
   123   62   63 2    
   124   62   64 am   BACKBONE|DICT|INTERRES
   125   64   65 1    
   126   64  130 1    
   127   65   66 1    
   128   65   69 1    
   129   65  131 1    
   130   66   67 am   BACKBONE|DICT|INTERRES
   131   66   68 2    
   132   67  132 1    
   133   67  133 1    
   134   69   70 1    
   135   69  134 1    
   136   69  135 1    
   137   70   71 1    
   138   71  136 1    
   139   71  137 1    
@<TRIPOS>SUBSTRUCTURE
     1 UNK         1 GROUP             0       ****    0 ROOT    
