@<TRIPOS>MOLECULE
3R136
137   139    1
SMALL
USER_CHARGES


@<TRIPOS>ATOM
      1 CA         28.2545   17.9325    2.2149 C.3       0 UNK        -0.1979 
      2 C          28.5167   19.3388    1.6961 C.2       0 UNK         0.4864 
      3 O          28.9303   19.4994    0.5465 O.2       0 UNK        -0.5359 
      4 N          28.2881   20.3558    2.5365 N.am      1 UNK        -0.4318 
      5 CA         28.4434   21.7739    2.2000 C.3       1 UNK         0.0824 
      6 C6         28.3668   22.6754    3.4570 C.3       12 UNK        -0.0944 
      7 S7         29.6767   22.3296    4.6784 S.3       12 UNK        -0.2672 
      8 C8         30.4899   23.9531    4.8298 C.3       12 UNK         0.0333 
      9 C9         31.6922   24.0818    3.9063 C.ar      12 UNK        -0.0807 
     10 C10        32.9801   24.0825    4.4482 C.ar      12 UNK        -0.0894 
     11 C11        34.0975   24.2499    3.6278 C.ar      12 UNK        -0.0804 
     12 C12        33.9242   24.3755    2.2468 C.ar      12 UNK        -0.0824 
     13 C13        32.6409   24.3858    1.6910 C.ar      12 UNK        -0.0762 
     14 C14        31.5271   24.2419    2.5261 C.ar      12 UNK        -0.0782 
     15 C15        32.4730   24.5640    0.1894 C.3       12 UNK         0.0230 
     16 S16        32.2995   26.3199   -0.2632 S.3       12 UNK        -0.2608 
     17 C17        30.4890   26.5036   -0.3019 C.3       12 UNK        -0.0989 
     18 CA         30.0087   27.9466   -0.0061 C.3       5 UNK         0.0716 
     19 N          28.6701   28.1731   -0.5509 N.am      5 UNK        -0.4135 
     20 C          28.1720   29.3690   -0.8915 C.2       4 UNK         0.5031 
     21 O          28.8278   30.4107   -0.8885 O.2       4 UNK        -0.5229 
     22 CA         26.6933   29.4171   -1.3236 C.3       4 UNK         0.0329 
     23 CB         26.5841   29.4662   -2.8564 C.3       4 UNK        -0.2001 
     24 N          25.8910   28.2960   -0.8223 N.am      4 UNK        -0.4303 
     25 C          25.5615   28.1113    0.4638 C.2       3 UNK         0.5044 
     26 O          25.8947   28.8675    1.3735 O.2       3 UNK        -0.5152 
     27 CA         24.7846   26.8282    0.8005 C.3       3 UNK         0.0319 
     28 CB         23.2845   27.0133    0.5225 C.3       3 UNK        -0.2001 
     29 N          25.2771   25.6366    0.0983 N.am      3 UNK        -0.4354 
     30 C          26.5285   25.1666    0.1848 C.2       2 UNK         0.4964 
     31 O          27.4354   25.7355    0.8007 O.2       2 UNK        -0.5047 
     32 CA         26.8394   23.8677   -0.5714 C.3       2 UNK         0.0288 
     33 CB         27.4852   24.1765   -1.9315 C.3       2 UNK        -0.2113 
     34 N          27.7601   23.0671    0.2342 N.am      2 UNK        -0.4145 
     35 C          27.3635   22.2268    1.1979 C.2       1 UNK         0.5006 
     36 O          26.1927   21.8708    1.3610 O.2       1 UNK        -0.5103 
     37 C          30.0216   28.2713    1.5003 C.2       5 UNK         0.5055 
     38 O          30.9188   28.9733    1.9648 O.2       5 UNK        -0.5220 
     39 N          29.0084   27.7686    2.2218 N.am      6 UNK        -0.4450 
     40 CA         28.8303   27.9510    3.6606 C.3       6 UNK         0.0367 
     41 CB         27.7057   27.0224    4.1500 C.3       6 UNK        -0.1929 
     42 C          28.5377   29.4070    4.0617 C.2       6 UNK         0.5070 
     43 O          29.1920   29.9279    4.9659 O.2       6 UNK        -0.5237 
     44 N          27.5417   30.0275    3.4127 N.am      7 UNK        -0.4739 
     45 CA         27.0428   31.3658    3.7372 C.3       7 UNK         0.0276 
     46 CB         25.7580   31.6453    2.9405 C.3       7 UNK        -0.1927 
     47 C          28.0924   32.4543    3.4713 C.2       7 UNK         0.5013 
     48 O          28.5212   32.6141    2.3266 O.2       7 UNK        -0.5193 
     49 N          28.4815   33.1735    4.5343 N.am      8 UNK        -0.4253 
     50 CA         29.4404   34.2883    4.6039 C.3       8 UNK         0.0242 
     51 CB         28.9630   35.4906    3.7655 C.3       8 UNK        -0.2000 
     52 C          30.8977   33.9243    4.2613 C.2       8 UNK         0.4948 
     53 O          31.8057   34.3527    4.9741 O.2       8 UNK        -0.5275 
     54 N          31.1016   33.1522    3.1888 N.am      9 UNK        -0.4246 
     55 CA         32.4045   32.7178    2.6868 C.3       9 UNK         0.0261 
     56 CB         32.2474   32.2538    1.2297 C.3       9 UNK        -0.1959 
     57 C          33.0717   31.6247    3.5397 C.2       9 UNK         0.5033 
     58 O          34.2858   31.4487    3.4142 O.2       9 UNK        -0.5390 
     59 N          32.2935   30.9091    4.3676 N.am      10 UNK        -0.4215 
     60 CA         32.6762   29.8064    5.2622 C.3       10 UNK         0.0240 
     61 CB         33.6723   30.2667    6.3466 C.3       10 UNK        -0.1982 
     62 C          33.1711   28.5544    4.5167 C.2       10 UNK         0.4970 
     63 O          32.5193   27.5144    4.6010 O.2       10 UNK        -0.4916 
     64 N          34.2966   28.6920    3.8088 N.am      11 UNK        -0.4279 
     65 CA         34.8570   27.7155    2.8657 C.3       11 UNK         0.1003 
     66 C          35.1770   28.3382    1.4753 C.2       11 UNK         0.5709 
     67 N          35.0158   29.6392    1.2571 N.am      11 UNK        -0.7358 
     68 O          35.5876   27.6228    0.5648 O.2       11 UNK        -0.4999 
     69 C69        36.1026   26.9742    3.4326 C.3       12 UNK        -0.0954 
     70 S70        35.7899   25.9950    4.9398 S.3       12 UNK        -0.2268 
     71 C71        35.4828   24.3360    4.2486 C.3       12 UNK         0.0203 
     72 H72        27.4968   17.4426    1.6039 H         1 UNK         0.0888 
     73 H73        29.1672   17.3390    2.1681 H         1 UNK         0.0888 
     74 H74        27.9062   17.9374    3.2476 H         1 UNK         0.0888 
     75 H75        27.9443   20.1664    3.4668 H         1 UNK         0.3017 
     76 H76        29.4254   21.9000    1.7385 H         1 UNK         0.0873 
     77 H77        28.4123   23.7263    3.1670 H         1 UNK         0.0745 
     78 H78        27.4049   22.5512    3.9591 H         1 UNK         0.0745 
     79 H79        30.8008   24.0759    5.8684 H         1 UNK         0.0705 
     80 H80        29.7879   24.7645    4.6406 H         1 UNK         0.0705 
     81 H81        33.1158   23.9895    5.5171 H         1 UNK         0.1334 
     82 H82        34.7866   24.5096    1.6077 H         1 UNK         0.1417 
     83 H83        30.5325   24.2624    2.1070 H         1 UNK         0.1562 
     84 H84        31.6194   23.9899   -0.1740 H         1 UNK         0.0748 
     85 H85        33.3446   24.1598   -0.3278 H         1 UNK         0.0748 
     86 H86        30.0229   25.7850    0.3724 H         1 UNK         0.0940 
     87 H87        30.1808   26.2138   -1.3072 H         1 UNK         0.0940 
     88 H88        30.6927   28.6402   -0.5009 H         1 UNK         0.0703 
     89 H89        28.0452   27.3792   -0.5397 H         1 UNK         0.3081 
     90 H90        26.2695   30.3397   -0.9206 H         1 UNK         0.0719 
     91 H91        27.1461   30.3095   -3.2607 H         1 UNK         0.0809 
     92 H92        26.9781   28.5606   -3.3195 H         1 UNK         0.0809 
     93 H93        25.5493   29.5866   -3.1776 H         1 UNK         0.0809 
     94 H94        25.5756   27.6178   -1.5007 H         1 UNK         0.2990 
     95 H95        24.9093   26.6471    1.8703 H         1 UNK         0.0690 
     96 H96        22.8957   27.8871    1.0478 H         1 UNK         0.0788 
     97 H97        22.7088   26.1522    0.8624 H         1 UNK         0.0788 
     98 H98        23.0823   27.1549   -0.5399 H         1 UNK         0.0788 
     99 H99        24.5978   25.1187   -0.4411 H         1 UNK         0.2993 
    100 H100       25.9131   23.3137   -0.7407 H         1 UNK         0.0949 
    101 H101       27.7053   23.2598   -2.4793 H         1 UNK         0.0767 
    102 H102       26.8186   24.7730   -2.5558 H         1 UNK         0.0767 
    103 H103       28.4168   24.7313   -1.8248 H         1 UNK         0.0767 
    104 H104       28.7324   23.3301    0.1848 H         1 UNK         0.3013 
    105 H105       28.3258   27.1807    1.7525 H         1 UNK         0.3121 
    106 H106       29.7601   27.6498    4.1484 H         1 UNK         0.0774 
    107 H107       26.7433   27.2851    3.7090 H         1 UNK         0.0815 
    108 H108       27.9070   25.9825    3.8984 H         1 UNK         0.0815 
    109 H109       27.5961   27.0812    5.2336 H         1 UNK         0.0815 
    110 H110       27.0586   29.5385    2.6614 H         1 UNK         0.2987 
    111 H111       26.7853   31.3718    4.7986 H         1 UNK         0.0949 
    112 H112       25.3540   32.6296    3.1806 H         1 UNK         0.0806 
    113 H113       25.9390   31.6197    1.8648 H         1 UNK         0.0806 
    114 H114       24.9835   30.9119    3.1656 H         1 UNK         0.0806 
    115 H115       28.0907   32.9100    5.4289 H         1 UNK         0.3010 
    116 H116       29.4420   34.6039    5.6487 H         1 UNK         0.0829 
    117 H117       28.9340   35.2612    2.6998 H         1 UNK         0.0813 
    118 H118       27.9659   35.8123    4.0660 H         1 UNK         0.0813 
    119 H119       29.6307   36.3436    3.8940 H         1 UNK         0.0813 
    120 H120       30.2763   32.8592    2.6667 H         1 UNK         0.3038 
    121 H121       33.0734   33.5811    2.6953 H         1 UNK         0.0769 
    122 H122       31.5579   31.4132    1.1455 H         1 UNK         0.0811 
    123 H123       33.2032   31.9366    0.8114 H         1 UNK         0.0811 
    124 H124       31.8701   33.0572    0.5971 H         1 UNK         0.0811 
    125 H125       31.2987   31.0910    4.3339 H         1 UNK         0.3204 
    126 H126       31.7583   29.5166    5.7758 H         1 UNK         0.0748 
    127 H127       33.8960   29.4523    7.0369 H         1 UNK         0.0771 
    128 H128       34.6202   30.6026    5.9259 H         1 UNK         0.0771 
    129 H129       33.2609   31.0868    6.9351 H         1 UNK         0.0771 
    130 H130       34.7019   29.6218    3.7765 H         1 UNK         0.2980 
    131 H131       34.0824   26.9809    2.6527 H         1 UNK         0.0545 
    132 H132       35.2351   30.0041    0.3445 H         1 UNK         0.3459 
    133 H133       34.7060   30.2689    1.9888 H         1 UNK         0.3459 
    134 H134       36.8862   27.6967    3.6663 H         1 UNK         0.0616 
    135 H135       36.5304   26.3073    2.6821 H         1 UNK         0.0616 
    136 H136       36.2558   24.0839    3.5211 H         1 UNK         0.0634 
    137 H137       35.5676   23.6010    5.0504 H         1 UNK         0.0634 
@<TRIPOS>BOND
     1    1    2 1    
     2    1   72 1    
     3    1   73 1    
     4    1   74 1    
     5    2    3 2    
     6    2    4 am   BACKBONE|DICT|INTERRES
     7    4    5 1    
     8    4   75 1    
     9    5    6 1    
    10    5   35 1    
    11    5   76 1    
    12    6    7 1    
    13    6   77 1    
    14    6   78 1    
    15    7    8 1    
    16    8    9 1    
    17    8   79 1    
    18    8   80 1    
    19    9   10 ar   
    20    9   14 ar   
    21   10   11 ar   
    22   10   81 1    
    23   11   12 ar   
    24   11   71 1    
    25   12   13 ar   
    26   12   82 1    
    27   13   14 ar   
    28   13   15 1    
    29   14   83 1    
    30   15   16 1    
    31   15   84 1    
    32   15   85 1    
    33   16   17 1    
    34   17   18 1    
    35   17   86 1    
    36   17   87 1    
    37   18   19 1    
    38   18   37 1    
    39   18   88 1    
    40   19   20 am   BACKBONE|DICT|INTERRES
    41   19   89 1    
    42   20   21 2    
    43   20   22 1    
    44   22   23 1    
    45   22   24 1    
    46   22   90 1    
    47   23   91 1    
    48   23   92 1    
    49   23   93 1    
    50   24   25 am   BACKBONE|DICT|INTERRES
    51   24   94 1    
    52   25   26 2    
    53   25   27 1    
    54   27   28 1    
    55   27   29 1    
    56   27   95 1    
    57   28   96 1    
    58   28   97 1    
    59   28   98 1    
    60   29   30 am   BACKBONE|DICT|INTERRES
    61   29   99 1    
    62   30   31 2    
    63   30   32 1    
    64   32   33 1    
    65   32   34 1    
    66   32  100 1    
    67   33  101 1    
    68   33  102 1    
    69   33  103 1    
    70   34   35 am   BACKBONE|DICT|INTERRES
    71   34  104 1    
    72   35   36 2    
    73   37   38 2    
    74   37   39 am   BACKBONE|DICT|INTERRES
    75   39   40 1    
    76   39  105 1    
    77   40   41 1    
    78   40   42 1    
    79   40  106 1    
    80   41  107 1    
    81   41  108 1    
    82   41  109 1    
    83   42   43 2    
    84   42   44 am   BACKBONE|DICT|INTERRES
    85   44   45 1    
    86   44  110 1    
    87   45   46 1    
    88   45   47 1    
    89   45  111 1    
    90   46  112 1    
    91   46  113 1    
    92   46  114 1    
    93   47   48 2    
    94   47   49 am   BACKBONE|DICT|INTERRES
    95   49   50 1    
    96   49  115 1    
    97   50   51 1    
    98   50   52 1    
    99   50  116 1    
   100   51  117 1    
   101   51  118 1    
   102   51  119 1    
   103   52   53 2    
   104   52   54 am   BACKBONE|DICT|INTERRES
   105   54   55 1    
   106   54  120 1    
   107   55   56 1    
   108   55   57 1    
   109   55  121 1    
   110   56  122 1    
   111   56  123 1    
   112   56  124 1    
   113   57   58 2    
   114   57   59 am   BACKBONE|DICT|INTERRES
   115   59   60 1    
   116   59  125 1    
   117   60   61 1    
   118   60   62 1    
   119   60  126 1    
   120   61  127 1    
   121   61  128 1    
   122   61  129 1    
   123   62   63 2    
   124   62   64 am   BACKBONE|DICT|INTERRES
   125   64   65 1    
   126   64  130 1    
   127   65   66 1    
   128   65   69 1    
   129   65  131 1    
   130   66   67 am   BACKBONE|DICT|INTERRES
   131   66   68 2    
   132   67  132 1    
   133   67  133 1    
   134   69   70 1    
   135   69  134 1    
   136   69  135 1    
   137   70   71 1    
   138   71  136 1    
   139   71  137 1    
@<TRIPOS>SUBSTRUCTURE
     1 UNK         1 GROUP             0       ****    0 ROOT    
