@<TRIPOS>MOLECULE
3R136
137   139    1
SMALL
USER_CHARGES


@<TRIPOS>ATOM
      1 CA         31.2960   28.3229   -2.2522 C.3       0 UNK        -0.1979 
      2 C          30.5660   27.2160   -1.5072 C.2       0 UNK         0.4864 
      3 O          29.5123   27.4587   -0.9244 O.2       0 UNK        -0.5359 
      4 N          31.1122   25.9938   -1.5346 N.am      1 UNK        -0.4318 
      5 CA         30.5736   24.7999   -0.8638 C.3       1 UNK         0.0824 
      6 C6         31.6228   23.6628   -0.8313 C.3       12 UNK        -0.0944 
      7 S7         33.1152   24.1270    0.1115 S.3       12 UNK        -0.2672 
      8 C8         33.1104   22.8953    1.4516 C.3       12 UNK         0.0333 
      9 C9         32.1822   23.2837    2.5943 C.ar      12 UNK        -0.0807 
     10 C10        32.6840   24.0013    3.6846 C.ar      12 UNK        -0.0894 
     11 C11        31.8602   24.3084    4.7710 C.ar      12 UNK        -0.0804 
     12 C12        30.5245   23.9007    4.7605 C.ar      12 UNK        -0.0824 
     13 C13        30.0040   23.2023    3.6674 C.ar      12 UNK        -0.0762 
     14 C14        30.8384   22.8933    2.5881 C.ar      12 UNK        -0.0782 
     15 C15        28.5507   22.7506    3.6661 C.3       12 UNK         0.0230 
     16 S16        27.4599   23.9429    2.8274 S.3       12 UNK        -0.2608 
     17 C17        27.3496   25.2994    4.0472 C.3       12 UNK        -0.0989 
     18 CA         27.8782   26.6369    3.4758 C.3       5 UNK         0.0716 
     19 N          27.0834   27.0627    2.3259 N.am      5 UNK        -0.4135 
     20 C          27.2682   28.1382    1.5532 C.2       4 UNK         0.5031 
     21 O          28.1985   28.9387    1.7060 O.2       4 UNK        -0.5229 
     22 CA         26.2043   28.3645    0.4534 C.3       4 UNK         0.0329 
     23 CB         26.6061   29.4347   -0.5750 C.3       4 UNK        -0.2001 
     24 N          25.8363   27.1404   -0.2692 N.am      4 UNK        -0.4303 
     25 C          25.0393   26.1623    0.1779 C.2       3 UNK         0.5044 
     26 O          24.5261   26.1787    1.2972 O.2       3 UNK        -0.5152 
     27 CA         24.7889   24.9446   -0.7318 C.3       3 UNK         0.0319 
     28 CB         23.4918   25.1212   -1.5453 C.3       3 UNK        -0.2001 
     29 N          25.9168   24.5541   -1.5913 N.am      3 UNK        -0.4354 
     30 C          26.4427   25.1945   -2.6441 C.2       2 UNK         0.4964 
     31 O          26.0737   26.3043   -3.0311 O.2       2 UNK        -0.5047 
     32 CA         27.6162   24.4881   -3.3465 C.3       2 UNK         0.0288 
     33 CB         27.7447   24.9034   -4.8238 C.3       2 UNK        -0.2113 
     34 N          28.8754   24.7777   -2.6633 N.am      2 UNK        -0.4145 
     35 C          29.2471   24.2880   -1.4715 C.2       1 UNK         0.5006 
     36 O          28.5891   23.4473   -0.8554 O.2       1 UNK        -0.5103 
     37 C          27.8775   27.7391    4.5519 C.2       5 UNK         0.5055 
     38 O          26.8077   28.0989    5.0472 O.2       5 UNK        -0.5220 
     39 N          29.0684   28.2768    4.8482 N.am      6 UNK        -0.4450 
     40 CA         29.3566   29.4031    5.7471 C.3       6 UNK         0.0367 
     41 CB         28.9442   29.0772    7.1978 C.3       6 UNK        -0.1929 
     42 C          28.8116   30.7687    5.2757 C.2       6 UNK         0.5070 
     43 O          28.9393   31.7450    6.0162 O.2       6 UNK        -0.5237 
     44 N          28.2408   30.8357    4.0653 N.am      7 UNK        -0.4739 
     45 CA         27.7648   32.0645    3.4296 C.3       7 UNK         0.0276 
     46 CB         26.3555   31.8426    2.8551 C.3       7 UNK        -0.1927 
     47 C          28.7513   32.5076    2.3423 C.2       7 UNK         0.5013 
     48 O          29.1832   33.6609    2.3567 O.2       7 UNK        -0.5193 
     49 N          29.1099   31.5798    1.4447 N.am      8 UNK        -0.4253 
     50 CA         30.1439   31.7605    0.4249 C.3       8 UNK         0.0242 
     51 CB         29.5872   31.3868   -0.9571 C.3       8 UNK        -0.2000 
     52 C          31.3821   30.9121    0.7421 C.2       8 UNK         0.4948 
     53 O          32.4929   31.3525    0.4425 O.2       8 UNK        -0.5275 
     54 N          31.1889   29.7202    1.3308 N.am      9 UNK        -0.4246 
     55 CA         32.2765   28.8457    1.7760 C.3       9 UNK         0.0261 
     56 CB         31.7120   27.4712    2.1660 C.3       9 UNK        -0.1959 
     57 C          33.0397   29.4732    2.9548 C.2       9 UNK         0.5033 
     58 O          32.4110   29.9424    3.9076 O.2       9 UNK        -0.5390 
     59 N          34.3762   29.4570    2.8801 N.am      10 UNK        -0.4215 
     60 CA         35.2863   30.0282    3.8767 C.3       10 UNK         0.0240 
     61 CB         36.6254   30.3653    3.1933 C.3       10 UNK        -0.1982 
     62 C          35.4579   29.0962    5.0911 C.2       10 UNK         0.4970 
     63 O          36.5533   28.5847    5.3306 O.2       10 UNK        -0.4916 
     64 N          34.3590   28.8739    5.8183 N.am      11 UNK        -0.4279 
     65 CA         34.2813   27.9792    6.9848 C.3       11 UNK         0.1003 
     66 C          34.9599   28.5232    8.2756 C.2       11 UNK         0.5709 
     67 N          35.3430   29.7928    8.3444 N.am      11 UNK        -0.7358 
     68 O          35.1495   27.7741    9.2311 O.2       11 UNK        -0.4999 
     69 C69        32.8237   27.5324    7.2716 C.3       12 UNK        -0.0954 
     70 S70        31.9980   26.8382    5.8043 S.3       12 UNK        -0.2268 
     71 C71        32.4082   25.0798    5.9588 C.3       12 UNK         0.0203 
     72 H72        32.0792   27.9289   -2.8994 H         1 UNK         0.0888 
     73 H73        30.5967   28.8837   -2.8718 H         1 UNK         0.0888 
     74 H74        31.7551   29.0119   -1.5452 H         1 UNK         0.0888 
     75 H75        31.9915   25.8560   -2.0127 H         1 UNK         0.3017 
     76 H76        30.3410   25.0755    0.1673 H         1 UNK         0.0873 
     77 H77        31.1973   22.7527   -0.4063 H         1 UNK         0.0745 
     78 H78        31.9293   23.3976   -1.8449 H         1 UNK         0.0745 
     79 H79        34.1298   22.7951    1.8275 H         1 UNK         0.0705 
     80 H80        32.8437   21.9130    1.0586 H         1 UNK         0.0705 
     81 H81        33.7200   24.3117    3.6925 H         1 UNK         0.1334 
     82 H82        29.8941   24.1303    5.6080 H         1 UNK         0.1417 
     83 H83        30.4400   22.3369    1.7511 H         1 UNK         0.1562 
     84 H84        28.1977   22.5816    4.6847 H         1 UNK         0.0748 
     85 H85        28.4686   21.7888    3.1577 H         1 UNK         0.0748 
     86 H86        27.8895   25.0273    4.9541 H         1 UNK         0.0940 
     87 H87        26.3042   25.3987    4.3472 H         1 UNK         0.0940 
     88 H88        28.9000   26.4796    3.1255 H         1 UNK         0.0703 
     89 H89        26.2535   26.5094    2.1409 H         1 UNK         0.3081 
     90 H90        25.3150   28.7326    0.9690 H         1 UNK         0.0719 
     91 H91        27.4402   29.0982   -1.1894 H         1 UNK         0.0809 
     92 H92        25.7776   29.6655   -1.2445 H         1 UNK         0.0809 
     93 H93        26.8972   30.3685   -0.0955 H         1 UNK         0.0809 
     94 H94        26.2054   27.0398   -1.2095 H         1 UNK         0.2990 
     95 H95        24.6368   24.0963   -0.0624 H         1 UNK         0.0690 
     96 H96        23.2675   24.2311   -2.1332 H         1 UNK         0.0788 
     97 H97        23.5489   25.9696   -2.2279 H         1 UNK         0.0788 
     98 H98        22.6410   25.2961   -0.8853 H         1 UNK         0.0788 
     99 H99        26.3979   23.7118   -1.2965 H         1 UNK         0.2993 
    100 H100       27.4360   23.4111   -3.3156 H         1 UNK         0.0949 
    101 H101       27.9716   25.9652   -4.9304 H         1 UNK         0.0767 
    102 H102       28.5318   24.3408   -5.3262 H         1 UNK         0.0767 
    103 H103       26.8160   24.7128   -5.3635 H         1 UNK         0.0767 
    104 H104       29.4626   25.4836   -3.0817 H         1 UNK         0.3013 
    105 H105       29.8854   27.9004    4.3887 H         1 UNK         0.3121 
    106 H106       30.4419   29.5111    5.7394 H         1 UNK         0.0774 
    107 H107       29.3020   29.8429    7.8871 H         1 UNK         0.0815 
    108 H108       27.8613   29.0221    7.3106 H         1 UNK         0.0815 
    109 H109       29.3670   28.1274    7.5253 H         1 UNK         0.0815 
    110 H110       28.1970   29.9910    3.5080 H         1 UNK         0.2987 
    111 H111       27.6986   32.8717    4.1627 H         1 UNK         0.0949 
    112 H112       25.9943   32.7396    2.3503 H         1 UNK         0.0806 
    113 H113       26.3276   31.0278    2.1334 H         1 UNK         0.0806 
    114 H114       25.6433   31.6073    3.6461 H         1 UNK         0.0806 
    115 H115       28.7050   30.6486    1.5175 H         1 UNK         0.3010 
    116 H116       30.4612   32.8049    0.3874 H         1 UNK         0.0829 
    117 H117       28.6843   31.9509   -1.1909 H         1 UNK         0.0813 
    118 H118       30.3166   31.6004   -1.7394 H         1 UNK         0.0813 
    119 H119       29.3514   30.3252   -1.0180 H         1 UNK         0.0813 
    120 H120       30.2436   29.4057    1.5143 H         1 UNK         0.3038 
    121 H121       32.9600   28.7077    0.9355 H         1 UNK         0.0769 
    122 H122       32.5132   26.7769    2.4228 H         1 UNK         0.0811 
    123 H123       31.1441   27.0221    1.3536 H         1 UNK         0.0811 
    124 H124       31.0556   27.5397    3.0296 H         1 UNK         0.0811 
    125 H125       34.8107   29.0202    2.0799 H         1 UNK         0.3204 
    126 H126       34.8606   30.9643    4.2451 H         1 UNK         0.0748 
    127 H127       37.3216   30.8188    3.9002 H         1 UNK         0.0771 
    128 H128       37.1080   29.4766    2.7842 H         1 UNK         0.0771 
    129 H129       36.4863   31.0765    2.3786 H         1 UNK         0.0771 
    130 H130       33.4886   29.2913    5.5054 H         1 UNK         0.2980 
    131 H131       34.8412   27.0788    6.7251 H         1 UNK         0.0545 
    132 H132       35.7855   30.1305    9.1845 H         1 UNK         0.3459 
    133 H133       35.1910   30.4149    7.5673 H         1 UNK         0.3459 
    134 H134       32.2295   28.3814    7.6142 H         1 UNK         0.0616 
    135 H135       32.7925   26.7945    8.0755 H         1 UNK         0.0616 
    136 H136       31.9913   24.6867    6.8873 H         1 UNK         0.0634 
    137 H137       33.4909   24.9627    6.0253 H         1 UNK         0.0634 
@<TRIPOS>BOND
     1    1    2 1    
     2    1   72 1    
     3    1   73 1    
     4    1   74 1    
     5    2    3 2    
     6    2    4 am   BACKBONE|DICT|INTERRES
     7    4    5 1    
     8    4   75 1    
     9    5    6 1    
    10    5   35 1    
    11    5   76 1    
    12    6    7 1    
    13    6   77 1    
    14    6   78 1    
    15    7    8 1    
    16    8    9 1    
    17    8   79 1    
    18    8   80 1    
    19    9   10 ar   
    20    9   14 ar   
    21   10   11 ar   
    22   10   81 1    
    23   11   12 ar   
    24   11   71 1    
    25   12   13 ar   
    26   12   82 1    
    27   13   14 ar   
    28   13   15 1    
    29   14   83 1    
    30   15   16 1    
    31   15   84 1    
    32   15   85 1    
    33   16   17 1    
    34   17   18 1    
    35   17   86 1    
    36   17   87 1    
    37   18   19 1    
    38   18   37 1    
    39   18   88 1    
    40   19   20 am   BACKBONE|DICT|INTERRES
    41   19   89 1    
    42   20   21 2    
    43   20   22 1    
    44   22   23 1    
    45   22   24 1    
    46   22   90 1    
    47   23   91 1    
    48   23   92 1    
    49   23   93 1    
    50   24   25 am   BACKBONE|DICT|INTERRES
    51   24   94 1    
    52   25   26 2    
    53   25   27 1    
    54   27   28 1    
    55   27   29 1    
    56   27   95 1    
    57   28   96 1    
    58   28   97 1    
    59   28   98 1    
    60   29   30 am   BACKBONE|DICT|INTERRES
    61   29   99 1    
    62   30   31 2    
    63   30   32 1    
    64   32   33 1    
    65   32   34 1    
    66   32  100 1    
    67   33  101 1    
    68   33  102 1    
    69   33  103 1    
    70   34   35 am   BACKBONE|DICT|INTERRES
    71   34  104 1    
    72   35   36 2    
    73   37   38 2    
    74   37   39 am   BACKBONE|DICT|INTERRES
    75   39   40 1    
    76   39  105 1    
    77   40   41 1    
    78   40   42 1    
    79   40  106 1    
    80   41  107 1    
    81   41  108 1    
    82   41  109 1    
    83   42   43 2    
    84   42   44 am   BACKBONE|DICT|INTERRES
    85   44   45 1    
    86   44  110 1    
    87   45   46 1    
    88   45   47 1    
    89   45  111 1    
    90   46  112 1    
    91   46  113 1    
    92   46  114 1    
    93   47   48 2    
    94   47   49 am   BACKBONE|DICT|INTERRES
    95   49   50 1    
    96   49  115 1    
    97   50   51 1    
    98   50   52 1    
    99   50  116 1    
   100   51  117 1    
   101   51  118 1    
   102   51  119 1    
   103   52   53 2    
   104   52   54 am   BACKBONE|DICT|INTERRES
   105   54   55 1    
   106   54  120 1    
   107   55   56 1    
   108   55   57 1    
   109   55  121 1    
   110   56  122 1    
   111   56  123 1    
   112   56  124 1    
   113   57   58 2    
   114   57   59 am   BACKBONE|DICT|INTERRES
   115   59   60 1    
   116   59  125 1    
   117   60   61 1    
   118   60   62 1    
   119   60  126 1    
   120   61  127 1    
   121   61  128 1    
   122   61  129 1    
   123   62   63 2    
   124   62   64 am   BACKBONE|DICT|INTERRES
   125   64   65 1    
   126   64  130 1    
   127   65   66 1    
   128   65   69 1    
   129   65  131 1    
   130   66   67 am   BACKBONE|DICT|INTERRES
   131   66   68 2    
   132   67  132 1    
   133   67  133 1    
   134   69   70 1    
   135   69  134 1    
   136   69  135 1    
   137   70   71 1    
   138   71  136 1    
   139   71  137 1    
@<TRIPOS>SUBSTRUCTURE
     1 UNK         1 GROUP             0       ****    0 ROOT    
