@<TRIPOS>MOLECULE
3R136
137   139    1
SMALL
USER_CHARGES


@<TRIPOS>ATOM
      1 CA         31.4747   23.7221   -1.0286 C.3       0 UNK        -0.1979 
      2 C          31.0270   22.2634   -1.0237 C.2       0 UNK         0.4864 
      3 O          31.3746   21.5244   -1.9432 O.2       0 UNK        -0.5359 
      4 N          30.2735   21.7926   -0.0190 N.am      1 UNK        -0.4318 
      5 CA         29.7375   22.5417    1.1279 C.3       1 UNK         0.0824 
      6 C6         29.2759   21.5922    2.2642 C.3       12 UNK        -0.0944 
      7 S7         30.6211   20.4895    2.8295 S.3       12 UNK        -0.2672 
      8 C8         30.9680   21.0915    4.5173 C.3       12 UNK         0.0333 
      9 C9         31.2315   22.5911    4.5756 C.ar      12 UNK        -0.0807 
     10 C10        32.2159   23.1755    3.7715 C.ar      12 UNK        -0.0894 
     11 C11        32.4205   24.5584    3.7843 C.ar      12 UNK        -0.0804 
     12 C12        31.6364   25.3530    4.6289 C.ar      12 UNK        -0.0824 
     13 C13        30.6760   24.7789    5.4672 C.ar      12 UNK        -0.0762 
     14 C14        30.4783   23.3964    5.4349 C.ar      12 UNK        -0.0782 
     15 C15        29.8564   25.6533    6.4092 C.3       12 UNK         0.0230 
     16 S16        28.0613   25.6071    6.0719 S.3       12 UNK        -0.2608 
     17 C17        27.9692   25.8675    4.2684 C.3       12 UNK        -0.0989 
     18 CA         28.4278   27.2732    3.8117 C.3       5 UNK         0.0716 
     19 N          28.8613   27.2695    2.4130 N.am      5 UNK        -0.4135 
     20 C          29.5116   28.2833    1.8238 C.2       4 UNK         0.5031 
     21 O          29.8294   29.3244    2.3990 O.2       4 UNK        -0.5229 
     22 CA         29.8426   28.1205    0.3348 C.3       4 UNK         0.0329 
     23 CB         31.0138   27.1432    0.1584 C.3       4 UNK        -0.2001 
     24 N          28.6987   27.6725   -0.4628 N.am      4 UNK        -0.4303 
     25 C          27.5193   28.2998   -0.5675 C.2       3 UNK         0.5044 
     26 O          27.2510   29.3473    0.0179 O.2       3 UNK        -0.5152 
     27 CA         26.4347   27.6372   -1.4376 C.3       3 UNK         0.0319 
     28 CB         26.6644   27.9217   -2.9348 C.3       3 UNK        -0.2001 
     29 N          26.2471   26.2034   -1.1684 N.am      3 UNK        -0.4354 
     30 C          27.1004   25.1952   -1.3944 C.2       2 UNK         0.4964 
     31 O          28.1863   25.3177   -1.9664 O.2       2 UNK        -0.5047 
     32 CA         26.6768   23.8185   -0.8580 C.3       2 UNK         0.0288 
     33 CB         26.0292   22.9835   -1.9742 C.3       2 UNK        -0.2113 
     34 N          27.8029   23.0725   -0.2905 N.am      2 UNK        -0.4145 
     35 C          28.5885   23.4855    0.7172 C.2       1 UNK         0.5006 
     36 O          28.4523   24.5649    1.2985 O.2       1 UNK        -0.5103 
     37 C          27.3700   28.3609    4.0871 C.2       5 UNK         0.5055 
     38 O          27.4983   29.0942    5.0695 O.2       5 UNK        -0.5220 
     39 N          26.3866   28.4842    3.1814 N.am      6 UNK        -0.4450 
     40 CA         25.3212   29.4925    3.2229 C.3       6 UNK         0.0367 
     41 CB         24.2930   29.2006    2.1184 C.3       6 UNK        -0.1929 
     42 C          25.8430   30.9362    3.1105 C.2       6 UNK         0.5070 
     43 O          25.2825   31.8335    3.7384 O.2       6 UNK        -0.5237 
     44 N          26.9388   31.1265    2.3654 N.am      7 UNK        -0.4739 
     45 CA         27.6816   32.3818    2.2237 C.3       7 UNK         0.0276 
     46 CB         28.4077   32.3637    0.8666 C.3       7 UNK        -0.1927 
     47 C          28.6465   32.6664    3.3982 C.2       7 UNK         0.5013 
     48 O          29.6306   33.3816    3.2070 O.2       7 UNK        -0.5193 
     49 N          28.3481   32.1205    4.5874 N.am      8 UNK        -0.4253 
     50 CA         29.0858   32.2458    5.8497 C.3       8 UNK         0.0242 
     51 CB         29.0964   33.7074    6.3485 C.3       8 UNK        -0.2000 
     52 C          30.4875   31.6131    5.7793 C.2       8 UNK         0.4948 
     53 O          31.4696   32.2365    6.1869 O.2       8 UNK        -0.5275 
     54 N          30.5344   30.3726    5.2728 N.am      9 UNK        -0.4246 
     55 CA         31.7222   29.5290    5.0947 C.3       9 UNK         0.0261 
     56 CB         32.3218   29.1148    6.4550 C.3       9 UNK        -0.1959 
     57 C          32.7577   30.1442    4.1358 C.2       9 UNK         0.5033 
     58 O          33.9473   30.2106    4.4537 O.2       9 UNK        -0.5390 
     59 N          32.2902   30.5464    2.9485 N.am      10 UNK        -0.4215 
     60 CA         33.1060   31.0449    1.8392 C.3       10 UNK         0.0240 
     61 CB         32.2439   31.9733    0.9647 C.3       10 UNK        -0.1982 
     62 C          33.7106   29.8737    1.0404 C.2       10 UNK         0.4970 
     63 O          33.4523   29.7425   -0.1573 O.2       10 UNK        -0.4916 
     64 N          34.4628   29.0132    1.7351 N.am      11 UNK        -0.4279 
     65 CA         35.0876   27.7983    1.1963 C.3       11 UNK         0.1003 
     66 C          36.1890   28.0990    0.1431 C.2       11 UNK         0.5709 
     67 N          36.3567   27.2301   -0.8448 N.am      11 UNK        -0.7358 
     68 O          36.9181   29.0853    0.2373 O.2       11 UNK        -0.4999 
     69 C69        35.6416   26.8880    2.3245 C.3       12 UNK        -0.0954 
     70 S70        34.4275   26.5104    3.6336 S.3       12 UNK        -0.2268 
     71 C71        33.4627   25.1749    2.8540 C.3       12 UNK         0.0203 
     72 H72        30.6306   24.3824   -1.2216 H         1 UNK         0.0888 
     73 H73        31.9397   23.9989   -0.0835 H         1 UNK         0.0888 
     74 H74        32.2103   23.8909   -1.8148 H         1 UNK         0.0888 
     75 H75        30.0432   20.8091   -0.0230 H         1 UNK         0.3017 
     76 H76        30.5320   23.1710    1.5300 H         1 UNK         0.0873 
     77 H77        28.8926   22.1631    3.1123 H         1 UNK         0.0745 
     78 H78        28.4486   20.9640    1.9282 H         1 UNK         0.0745 
     79 H79        30.1285   20.8194    5.1591 H         1 UNK         0.0705 
     80 H80        31.8384   20.5633    4.9085 H         1 UNK         0.0705 
     81 H81        32.8030   22.5499    3.1127 H         1 UNK         0.1334 
     82 H82        31.7843   26.4214    4.6411 H         1 UNK         0.1417 
     83 H83        29.7239   22.9536    6.0712 H         1 UNK         0.1562 
     84 H84        30.1964   26.6887    6.3729 H         1 UNK         0.0748 
     85 H85        30.0257   25.3211    7.4343 H         1 UNK         0.0748 
     86 H86        26.9534   25.6539    3.9304 H         1 UNK         0.0940 
     87 H87        28.5888   25.0996    3.8052 H         1 UNK         0.0940 
     88 H88        29.3099   27.5429    4.3914 H         1 UNK         0.0703 
     89 H89        28.6656   26.4267    1.8785 H         1 UNK         0.3081 
     90 H90        30.1485   29.0969   -0.0466 H         1 UNK         0.0719 
     91 H91        31.8798   27.4720    0.7324 H         1 UNK         0.0809 
     92 H92        30.7571   26.1420    0.5041 H         1 UNK         0.0809 
     93 H93        31.3234   27.0751   -0.8846 H         1 UNK         0.0809 
     94 H94        28.8019   26.8048   -0.9828 H         1 UNK         0.2990 
     95 H95        25.4895   28.1091   -1.1641 H         1 UNK         0.0690 
     96 H96        25.8658   27.4998   -3.5450 H         1 UNK         0.0788 
     97 H97        27.6103   27.5148   -3.2928 H         1 UNK         0.0788 
     98 H98        26.6846   28.9957   -3.1249 H         1 UNK         0.0788 
     99 H99        25.3859   25.9801   -0.6882 H         1 UNK         0.2993 
    100 H100       25.9474   23.9615   -0.0579 H         1 UNK         0.0949 
    101 H101       25.6735   22.0238   -1.5983 H         1 UNK         0.0767 
    102 H102       25.1691   23.5008   -2.4019 H         1 UNK         0.0767 
    103 H103       26.7292   22.7879   -2.7880 H         1 UNK         0.0767 
    104 H104       28.0237   22.1914   -0.7302 H         1 UNK         0.3013 
    105 H105       26.3907   27.8653    2.3846 H         1 UNK         0.3121 
    106 H106       24.8201   29.4008    4.1890 H         1 UNK         0.0774 
    107 H107       24.7352   29.2713    1.1242 H         1 UNK         0.0815 
    108 H108       23.4689   29.9142    2.1574 H         1 UNK         0.0815 
    109 H109       23.8623   28.2052    2.2271 H         1 UNK         0.0815 
    110 H110       27.3005   30.3378    1.8388 H         1 UNK         0.2987 
    111 H111       26.9670   33.2073    2.2069 H         1 UNK         0.0949 
    112 H112       29.1195   31.5407    0.8113 H         1 UNK         0.0806 
    113 H113       27.7023   32.2455    0.0439 H         1 UNK         0.0806 
    114 H114       28.9557   33.2900    0.6899 H         1 UNK         0.0806 
    115 H115       27.5298   31.5264    4.6242 H         1 UNK         0.3010 
    116 H116       28.5289   31.6583    6.5816 H         1 UNK         0.0829 
    117 H117       29.6806   34.3566    5.6957 H         1 UNK         0.0813 
    118 H118       28.0868   34.1133    6.4100 H         1 UNK         0.0813 
    119 H119       29.5337   33.7747    7.3454 H         1 UNK         0.0813 
    120 H120       29.6635   29.9815    4.9343 H         1 UNK         0.3038 
    121 H121       31.3735   28.6229    4.6034 H         1 UNK         0.0769 
    122 H122       33.1208   28.3843    6.3204 H         1 UNK         0.0811 
    123 H123       32.7481   29.9666    6.9857 H         1 UNK         0.0811 
    124 H124       31.5712   28.6599    7.1006 H         1 UNK         0.0811 
    125 H125       31.3096   30.3581    2.7435 H         1 UNK         0.3204 
    126 H126       33.9337   31.6346    2.2388 H         1 UNK         0.0748 
    127 H127       32.8384   32.4232    0.1687 H         1 UNK         0.0771 
    128 H128       31.4239   31.4319    0.4928 H         1 UNK         0.0771 
    129 H129       31.8160   32.7874    1.5503 H         1 UNK         0.0771 
    130 H130       34.6161   29.1990    2.7195 H         1 UNK         0.2980 
    131 H131       34.2981   27.2454    0.6848 H         1 UNK         0.0545 
    132 H132       37.0775   27.4015   -1.5283 H         1 UNK         0.3459 
    133 H133       35.7757   26.4106   -0.9264 H         1 UNK         0.3459 
    134 H134       36.0129   25.9479    1.9125 H         1 UNK         0.0616 
    135 H135       36.4978   27.3653    2.8050 H         1 UNK         0.0616 
    136 H136       34.1553   24.4079    2.5038 H         1 UNK         0.0634 
    137 H137       32.9553   25.5666    1.9726 H         1 UNK         0.0634 
@<TRIPOS>BOND
     1    1    2 1    
     2    1   72 1    
     3    1   73 1    
     4    1   74 1    
     5    2    3 2    
     6    2    4 am   BACKBONE|DICT|INTERRES
     7    4    5 1    
     8    4   75 1    
     9    5    6 1    
    10    5   35 1    
    11    5   76 1    
    12    6    7 1    
    13    6   77 1    
    14    6   78 1    
    15    7    8 1    
    16    8    9 1    
    17    8   79 1    
    18    8   80 1    
    19    9   10 ar   
    20    9   14 ar   
    21   10   11 ar   
    22   10   81 1    
    23   11   12 ar   
    24   11   71 1    
    25   12   13 ar   
    26   12   82 1    
    27   13   14 ar   
    28   13   15 1    
    29   14   83 1    
    30   15   16 1    
    31   15   84 1    
    32   15   85 1    
    33   16   17 1    
    34   17   18 1    
    35   17   86 1    
    36   17   87 1    
    37   18   19 1    
    38   18   37 1    
    39   18   88 1    
    40   19   20 am   BACKBONE|DICT|INTERRES
    41   19   89 1    
    42   20   21 2    
    43   20   22 1    
    44   22   23 1    
    45   22   24 1    
    46   22   90 1    
    47   23   91 1    
    48   23   92 1    
    49   23   93 1    
    50   24   25 am   BACKBONE|DICT|INTERRES
    51   24   94 1    
    52   25   26 2    
    53   25   27 1    
    54   27   28 1    
    55   27   29 1    
    56   27   95 1    
    57   28   96 1    
    58   28   97 1    
    59   28   98 1    
    60   29   30 am   BACKBONE|DICT|INTERRES
    61   29   99 1    
    62   30   31 2    
    63   30   32 1    
    64   32   33 1    
    65   32   34 1    
    66   32  100 1    
    67   33  101 1    
    68   33  102 1    
    69   33  103 1    
    70   34   35 am   BACKBONE|DICT|INTERRES
    71   34  104 1    
    72   35   36 2    
    73   37   38 2    
    74   37   39 am   BACKBONE|DICT|INTERRES
    75   39   40 1    
    76   39  105 1    
    77   40   41 1    
    78   40   42 1    
    79   40  106 1    
    80   41  107 1    
    81   41  108 1    
    82   41  109 1    
    83   42   43 2    
    84   42   44 am   BACKBONE|DICT|INTERRES
    85   44   45 1    
    86   44  110 1    
    87   45   46 1    
    88   45   47 1    
    89   45  111 1    
    90   46  112 1    
    91   46  113 1    
    92   46  114 1    
    93   47   48 2    
    94   47   49 am   BACKBONE|DICT|INTERRES
    95   49   50 1    
    96   49  115 1    
    97   50   51 1    
    98   50   52 1    
    99   50  116 1    
   100   51  117 1    
   101   51  118 1    
   102   51  119 1    
   103   52   53 2    
   104   52   54 am   BACKBONE|DICT|INTERRES
   105   54   55 1    
   106   54  120 1    
   107   55   56 1    
   108   55   57 1    
   109   55  121 1    
   110   56  122 1    
   111   56  123 1    
   112   56  124 1    
   113   57   58 2    
   114   57   59 am   BACKBONE|DICT|INTERRES
   115   59   60 1    
   116   59  125 1    
   117   60   61 1    
   118   60   62 1    
   119   60  126 1    
   120   61  127 1    
   121   61  128 1    
   122   61  129 1    
   123   62   63 2    
   124   62   64 am   BACKBONE|DICT|INTERRES
   125   64   65 1    
   126   64  130 1    
   127   65   66 1    
   128   65   69 1    
   129   65  131 1    
   130   66   67 am   BACKBONE|DICT|INTERRES
   131   66   68 2    
   132   67  132 1    
   133   67  133 1    
   134   69   70 1    
   135   69  134 1    
   136   69  135 1    
   137   70   71 1    
   138   71  136 1    
   139   71  137 1    
@<TRIPOS>SUBSTRUCTURE
     1 UNK         1 GROUP             0       ****    0 ROOT    
