@<TRIPOS>MOLECULE
3R136
137   139    1
SMALL
USER_CHARGES


@<TRIPOS>ATOM
      1 CA         29.0582   16.9381    3.0216 C.3       0 UNK        -0.1979 
      2 C          28.3652   17.4839    1.7817 C.2       0 UNK         0.4864 
      3 O          27.2854   17.0092    1.4248 O.2       0 UNK        -0.5359 
      4 N          28.9821   18.4694    1.1182 N.am      1 UNK        -0.4318 
      5 CA         28.4382   19.1724   -0.0469 C.3       1 UNK         0.0824 
      6 C6         29.5316   19.9546   -0.8281 C.3       12 UNK        -0.0944 
      7 S7         30.6941   20.9124    0.2087 S.3       12 UNK        -0.2672 
      8 C8         29.9806   22.5850    0.1347 C.3       12 UNK         0.0333 
      9 C9         30.7997   23.5579    0.9710 C.ar      12 UNK        -0.0807 
     10 C10        30.7706   23.4725    2.3675 C.ar      12 UNK        -0.0894 
     11 C11        31.5242   24.3519    3.1503 C.ar      12 UNK        -0.0804 
     12 C12        32.3081   25.3232    2.5229 C.ar      12 UNK        -0.0824 
     13 C13        32.3252   25.4394    1.1318 C.ar      12 UNK        -0.0762 
     14 C14        31.5734   24.5494    0.3577 C.ar      12 UNK        -0.0782 
     15 C15        33.1749   26.5155    0.4720 C.3       12 UNK         0.0230 
     16 S16        32.1927   27.9728   -0.0058 S.3       12 UNK        -0.2608 
     17 C17        31.7060   28.6863    1.6038 C.3       12 UNK        -0.0989 
     18 CA         30.1682   28.7586    1.7518 C.3       5 UNK         0.0716 
     19 N          29.5679   27.4245    1.8034 N.am      5 UNK        -0.4135 
     20 C          28.2566   27.1608    1.7618 C.2       4 UNK         0.5031 
     21 O          27.3732   28.0199    1.6932 O.2       4 UNK        -0.5229 
     22 CA         27.8746   25.6727    1.8196 C.3       4 UNK         0.0329 
     23 CB         27.6933   25.2122    3.2745 C.3       4 UNK        -0.2001 
     24 N          26.6662   25.3515    1.0590 N.am      4 UNK        -0.4303 
     25 C          26.5192   25.5126   -0.2635 C.2       3 UNK         0.5044 
     26 O          27.3950   25.9561   -1.0096 O.2       3 UNK        -0.5152 
     27 CA         25.1675   25.0445   -0.8370 C.3       3 UNK         0.0319 
     28 CB         25.0051   25.3581   -2.3405 C.3       3 UNK        -0.2001 
     29 N          24.9240   23.6190   -0.5704 N.am      3 UNK        -0.4354 
     30 C          25.6899   22.5860   -0.9554 C.2       2 UNK         0.4964 
     31 O          26.7102   22.6922   -1.6410 O.2       2 UNK        -0.5047 
     32 CA         25.2063   21.1900   -0.5263 C.3       2 UNK         0.0288 
     33 CB         24.0617   20.7105   -1.4356 C.3       2 UNK        -0.2113 
     34 N          26.3014   20.2222   -0.5979 N.am      2 UNK        -0.4145 
     35 C          27.2512   20.0810    0.3354 C.2       1 UNK         0.5006 
     36 O          27.2300   20.6519    1.4300 O.2       1 UNK        -0.5103 
     37 C          29.7614   29.6006    2.9774 C.2       5 UNK         0.5055 
     38 O          29.8737   29.1267    4.1099 O.2       5 UNK        -0.5220 
     39 N          29.3017   30.8292    2.7219 N.am      6 UNK        -0.4450 
     40 CA         28.7793   31.7740    3.7046 C.3       6 UNK         0.0367 
     41 CB         27.3401   31.3765    4.0935 C.3       6 UNK        -0.1929 
     42 C          28.8374   33.1888    3.1074 C.2       6 UNK         0.5070 
     43 O          29.2640   33.3505    1.9589 O.2       6 UNK        -0.5237 
     44 N          28.4081   34.1836    3.8974 N.am      7 UNK        -0.4739 
     45 CA         28.3624   35.6176    3.5856 C.3       7 UNK         0.0276 
     46 CB         27.3425   35.9124    2.4616 C.3       7 UNK        -0.1927 
     47 C          29.7644   36.1934    3.3157 C.2       7 UNK         0.5013 
     48 O          30.4548   36.5621    4.2666 O.2       7 UNK        -0.5193 
     49 N          30.1600   36.2572    2.0376 N.am      8 UNK        -0.4253 
     50 CA         31.4849   36.6969    1.5915 C.3       8 UNK         0.0242 
     51 CB         31.4104   37.0700    0.1015 C.3       8 UNK        -0.2000 
     52 C          32.5890   35.6481    1.8285 C.2       8 UNK         0.4948 
     53 O          33.7665   36.0107    1.8192 O.2       8 UNK        -0.5275 
     54 N          32.2007   34.3824    2.0212 N.am      9 UNK        -0.4246 
     55 CA         33.0785   33.2494    2.3105 C.3       9 UNK         0.0261 
     56 CB         33.0170   32.2821    1.1150 C.3       9 UNK        -0.1959 
     57 C          32.6429   32.5859    3.6292 C.2       9 UNK         0.5033 
     58 O          31.7539   33.1008    4.3104 O.2       9 UNK        -0.5390 
     59 N          33.2739   31.4626    3.9863 N.am      10 UNK        -0.4215 
     60 CA         32.9654   30.6784    5.1812 C.3       10 UNK         0.0240 
     61 CB         33.5481   31.3650    6.4341 C.3       10 UNK        -0.1982 
     62 C          33.5366   29.2654    5.0234 C.2       10 UNK         0.4970 
     63 O          34.4005   29.0478    4.1698 O.2       10 UNK        -0.4916 
     64 N          33.0684   28.3473    5.8755 N.am      11 UNK        -0.4279 
     65 CA         33.6059   26.9842    6.0231 C.3       11 UNK         0.1003 
     66 C          34.9385   26.9052    6.8259 C.2       11 UNK         0.5709 
     67 N          35.4006   27.9721    7.4681 N.am      11 UNK        -0.7358 
     68 O          35.5734   25.8537    6.8563 O.2       11 UNK        -0.4999 
     69 C69        32.5438   26.0148    6.6076 C.3       12 UNK        -0.0954 
     70 S70        31.1086   25.7923    5.5014 S.3       12 UNK        -0.2268 
     71 C71        31.5267   24.2231    4.6677 C.3       12 UNK         0.0203 
     72 H72        29.2563   15.8732    2.9033 H         1 UNK         0.0888 
     73 H73        30.0066   17.4402    3.2124 H         1 UNK         0.0888 
     74 H74        28.4220   17.0722    3.8961 H         1 UNK         0.0888 
     75 H75        29.8521   18.8451    1.4691 H         1 UNK         0.3017 
     76 H76        28.0467   18.4071   -0.7214 H         1 UNK         0.0873 
     77 H77        30.1355   19.2386   -1.3877 H         1 UNK         0.0745 
     78 H78        29.0913   20.6060   -1.5863 H         1 UNK         0.0745 
     79 H79        29.9289   22.9130   -0.9048 H         1 UNK         0.0705 
     80 H80        28.9547   22.5683    0.5045 H         1 UNK         0.0705 
     81 H81        30.1693   22.7072    2.8400 H         1 UNK         0.1334 
     82 H82        32.9048   25.9955    3.1207 H         1 UNK         0.1417 
     83 H83        31.5930   24.6305   -0.7209 H         1 UNK         0.1562 
     84 H84        33.6508   26.1056   -0.4201 H         1 UNK         0.0748 
     85 H85        33.9871   26.8276    1.1309 H         1 UNK         0.0748 
     86 H86        32.1441   29.6804    1.6640 H         1 UNK         0.0940 
     87 H87        32.1494   28.1254    2.4270 H         1 UNK         0.0940 
     88 H88        29.7666   29.2491    0.8620 H         1 UNK         0.0703 
     89 H89        30.2186   26.6553    1.8784 H         1 UNK         0.3081 
     90 H90        28.6846   25.1028    1.3696 H         1 UNK         0.0719 
     91 H91        26.8592   25.7224    3.7577 H         1 UNK         0.0809 
     92 H92        27.5148   24.1382    3.3325 H         1 UNK         0.0809 
     93 H93        28.5864   25.4211    3.8641 H         1 UNK         0.0809 
     94 H94        25.8860   24.9899    1.5872 H         1 UNK         0.2990 
     95 H95        24.3947   25.6004   -0.3036 H         1 UNK         0.0690 
     96 H96        25.1031   26.4283   -2.5265 H         1 UNK         0.0788 
     97 H97        24.0240   25.0540   -2.7050 H         1 UNK         0.0788 
     98 H98        25.7585   24.8543   -2.9470 H         1 UNK         0.0788 
     99 H99        24.1022   23.4175   -0.0170 H         1 UNK         0.2993 
    100 H100       24.8436   21.2444    0.5029 H         1 UNK         0.0949 
    101 H101       23.2060   21.3848   -1.3812 H         1 UNK         0.0767 
    102 H102       24.3698   20.6600   -2.4809 H         1 UNK         0.0767 
    103 H103       23.7101   19.7212   -1.1415 H         1 UNK         0.0767 
    104 H104       26.4176   19.7516   -1.4836 H         1 UNK         0.3013 
    105 H105       29.3031   31.1937    1.7765 H         1 UNK         0.3121 
    106 H106       29.4169   31.7556    4.5909 H         1 UNK         0.0774 
    107 H107       26.9328   32.0395    4.8570 H         1 UNK         0.0815 
    108 H108       26.6693   31.4137    3.2342 H         1 UNK         0.0815 
    109 H109       27.3021   30.3655    4.4996 H         1 UNK         0.0815 
    110 H110       28.1239   33.9439    4.8373 H         1 UNK         0.2987 
    111 H111       28.0000   36.1172    4.4858 H         1 UNK         0.0949 
    112 H112       27.5679   35.3830    1.5357 H         1 UNK         0.0806 
    113 H113       26.3364   35.6226    2.7650 H         1 UNK         0.0806 
    114 H114       27.3117   36.9783    2.2316 H         1 UNK         0.0806 
    115 H115       29.5390   35.8863    1.3319 H         1 UNK         0.3010 
    116 H116       31.7591   37.5915    2.1549 H         1 UNK         0.0829 
    117 H117       30.6810   37.8610   -0.0743 H         1 UNK         0.0813 
    118 H118       32.3738   37.4345   -0.2582 H         1 UNK         0.0813 
    119 H119       31.1352   36.2139   -0.5160 H         1 UNK         0.0813 
    120 H120       31.2068   34.1843    2.0796 H         1 UNK         0.3038 
    121 H121       34.1090   33.5846    2.4440 H         1 UNK         0.0769 
    122 H122       32.0080   31.8969    0.9635 H         1 UNK         0.0811 
    123 H123       33.6904   31.4346    1.2440 H         1 UNK         0.0811 
    124 H124       33.3167   32.7825    0.1939 H         1 UNK         0.0811 
    125 H125       33.9927   31.0585    3.3977 H         1 UNK         0.3204 
    126 H126       31.8809   30.5970    5.2803 H         1 UNK         0.0748 
    127 H127       33.3227   30.7997    7.3390 H         1 UNK         0.0771 
    128 H128       34.6324   31.4648    6.3694 H         1 UNK         0.0771 
    129 H129       33.1312   32.3624    6.5744 H         1 UNK         0.0771 
    130 H130       32.3412   28.6048    6.5264 H         1 UNK         0.2980 
    131 H131       33.8653   26.6220    5.0284 H         1 UNK         0.0545 
    132 H132       34.8939   28.8412    7.4539 H         1 UNK         0.3459 
    133 H133       36.2676   27.9013    7.9772 H         1 UNK         0.3459 
    134 H134       32.9762   25.0375    6.8284 H         1 UNK         0.0616 
    135 H135       32.1776   26.3933    7.5634 H         1 UNK         0.0616 
    136 H136       30.8136   23.4644    4.9933 H         1 UNK         0.0634 
    137 H137       32.5112   23.8692    4.9741 H         1 UNK         0.0634 
@<TRIPOS>BOND
     1    1    2 1    
     2    1   72 1    
     3    1   73 1    
     4    1   74 1    
     5    2    3 2    
     6    2    4 am   BACKBONE|DICT|INTERRES
     7    4    5 1    
     8    4   75 1    
     9    5    6 1    
    10    5   35 1    
    11    5   76 1    
    12    6    7 1    
    13    6   77 1    
    14    6   78 1    
    15    7    8 1    
    16    8    9 1    
    17    8   79 1    
    18    8   80 1    
    19    9   10 ar   
    20    9   14 ar   
    21   10   11 ar   
    22   10   81 1    
    23   11   12 ar   
    24   11   71 1    
    25   12   13 ar   
    26   12   82 1    
    27   13   14 ar   
    28   13   15 1    
    29   14   83 1    
    30   15   16 1    
    31   15   84 1    
    32   15   85 1    
    33   16   17 1    
    34   17   18 1    
    35   17   86 1    
    36   17   87 1    
    37   18   19 1    
    38   18   37 1    
    39   18   88 1    
    40   19   20 am   BACKBONE|DICT|INTERRES
    41   19   89 1    
    42   20   21 2    
    43   20   22 1    
    44   22   23 1    
    45   22   24 1    
    46   22   90 1    
    47   23   91 1    
    48   23   92 1    
    49   23   93 1    
    50   24   25 am   BACKBONE|DICT|INTERRES
    51   24   94 1    
    52   25   26 2    
    53   25   27 1    
    54   27   28 1    
    55   27   29 1    
    56   27   95 1    
    57   28   96 1    
    58   28   97 1    
    59   28   98 1    
    60   29   30 am   BACKBONE|DICT|INTERRES
    61   29   99 1    
    62   30   31 2    
    63   30   32 1    
    64   32   33 1    
    65   32   34 1    
    66   32  100 1    
    67   33  101 1    
    68   33  102 1    
    69   33  103 1    
    70   34   35 am   BACKBONE|DICT|INTERRES
    71   34  104 1    
    72   35   36 2    
    73   37   38 2    
    74   37   39 am   BACKBONE|DICT|INTERRES
    75   39   40 1    
    76   39  105 1    
    77   40   41 1    
    78   40   42 1    
    79   40  106 1    
    80   41  107 1    
    81   41  108 1    
    82   41  109 1    
    83   42   43 2    
    84   42   44 am   BACKBONE|DICT|INTERRES
    85   44   45 1    
    86   44  110 1    
    87   45   46 1    
    88   45   47 1    
    89   45  111 1    
    90   46  112 1    
    91   46  113 1    
    92   46  114 1    
    93   47   48 2    
    94   47   49 am   BACKBONE|DICT|INTERRES
    95   49   50 1    
    96   49  115 1    
    97   50   51 1    
    98   50   52 1    
    99   50  116 1    
   100   51  117 1    
   101   51  118 1    
   102   51  119 1    
   103   52   53 2    
   104   52   54 am   BACKBONE|DICT|INTERRES
   105   54   55 1    
   106   54  120 1    
   107   55   56 1    
   108   55   57 1    
   109   55  121 1    
   110   56  122 1    
   111   56  123 1    
   112   56  124 1    
   113   57   58 2    
   114   57   59 am   BACKBONE|DICT|INTERRES
   115   59   60 1    
   116   59  125 1    
   117   60   61 1    
   118   60   62 1    
   119   60  126 1    
   120   61  127 1    
   121   61  128 1    
   122   61  129 1    
   123   62   63 2    
   124   62   64 am   BACKBONE|DICT|INTERRES
   125   64   65 1    
   126   64  130 1    
   127   65   66 1    
   128   65   69 1    
   129   65  131 1    
   130   66   67 am   BACKBONE|DICT|INTERRES
   131   66   68 2    
   132   67  132 1    
   133   67  133 1    
   134   69   70 1    
   135   69  134 1    
   136   69  135 1    
   137   70   71 1    
   138   71  136 1    
   139   71  137 1    
@<TRIPOS>SUBSTRUCTURE
     1 UNK         1 GROUP             0       ****    0 ROOT    
