@<TRIPOS>MOLECULE
3R136
137   139    1
SMALL
USER_CHARGES


@<TRIPOS>ATOM
      1 CA         24.7594   23.2348    2.7332 C.3       0 UNK        -0.1979 
      2 C          25.5513   22.3928    1.7441 C.2       0 UNK         0.4864 
      3 O          24.9619   21.6629    0.9458 O.2       0 UNK        -0.5359 
      4 N          26.8856   22.4897    1.7955 N.am      1 UNK        -0.4318 
      5 CA         27.8311   21.7447    0.9559 C.3       1 UNK         0.0824 
      6 C6         29.2793   21.8310    1.5010 C.3       12 UNK        -0.0944 
      7 S7         29.8604   23.5403    1.7896 S.3       12 UNK        -0.2672 
      8 C8         30.2383   23.4790    3.5663 C.3       12 UNK         0.0333 
      9 C9         30.7533   24.8224    4.0523 C.ar      12 UNK        -0.0807 
     10 C10        32.0926   25.1701    3.8559 C.ar      12 UNK        -0.0894 
     11 C11        32.5736   26.4076    4.2909 C.ar      12 UNK        -0.0804 
     12 C12        31.6997   27.3090    4.9059 C.ar      12 UNK        -0.0824 
     13 C13        30.3571   26.9722    5.1082 C.ar      12 UNK        -0.0762 
     14 C14        29.8948   25.7181    4.6961 C.ar      12 UNK        -0.0782 
     15 C15        29.4162   27.9702    5.7759 C.3       12 UNK         0.0230 
     16 S16        27.8987   28.3069    4.8152 S.3       12 UNK        -0.2608 
     17 C17        28.5517   28.6598    3.1471 C.3       12 UNK        -0.0989 
     18 CA         28.1438   27.5489    2.1471 C.3       5 UNK         0.0716 
     19 N          26.6991   27.5546    1.8993 N.am      5 UNK        -0.4135 
     20 C          26.0344   26.5866    1.2597 C.2       4 UNK         0.5031 
     21 O          26.5589   25.5247    0.9078 O.2       4 UNK        -0.5229 
     22 CA         24.5419   26.8345    0.9643 C.3       4 UNK         0.0329 
     23 CB         24.2036   28.3165    0.7079 C.3       4 UNK        -0.2001 
     24 N          24.2026   26.0568   -0.2200 N.am      4 UNK        -0.4303 
     25 C          23.2413   25.1387   -0.3338 C.2       3 UNK         0.5044 
     26 O          22.3178   25.0054    0.4696 O.2       3 UNK        -0.5152 
     27 CA         23.3687   24.1537   -1.5138 C.3       3 UNK         0.0319 
     28 CB         22.6483   24.6766   -2.7720 C.3       3 UNK        -0.2001 
     29 N          24.7614   23.7512   -1.7884 N.am      3 UNK        -0.4354 
     30 C          25.7671   24.4860   -2.2934 C.2       2 UNK         0.4964 
     31 O          25.6266   25.6332   -2.7194 O.2       2 UNK        -0.5047 
     32 CA         27.1716   23.8716   -2.2030 C.3       2 UNK         0.0288 
     33 CB         28.2917   24.8831   -2.5165 C.3       2 UNK        -0.2113 
     34 N          27.3682   23.3583   -0.8488 N.am      2 UNK        -0.4145 
     35 C          27.7647   22.1177   -0.5410 C.2       1 UNK         0.5006 
     36 O          28.0579   21.2663   -1.3829 O.2       1 UNK        -0.5103 
     37 C          28.9345   27.6773    0.8300 C.2       5 UNK         0.5055 
     38 O          28.4705   28.3332   -0.1062 O.2       5 UNK        -0.5220 
     39 N          30.1280   27.0682    0.7958 N.am      6 UNK        -0.4450 
     40 CA         31.0452   27.1013   -0.3490 C.3       6 UNK         0.0367 
     41 CB         32.1260   26.0243   -0.1626 C.3       6 UNK        -0.1929 
     42 C          31.6811   28.4834   -0.6000 C.2       6 UNK         0.5070 
     43 O          32.1279   28.7448   -1.7176 O.2       6 UNK        -0.5237 
     44 N          31.6977   29.3421    0.4243 N.am      7 UNK        -0.4739 
     45 CA         32.1189   30.7377    0.3632 C.3       7 UNK         0.0276 
     46 CB         33.6376   30.8456    0.6185 C.3       7 UNK        -0.1927 
     47 C          31.2427   31.5266    1.3488 C.2       7 UNK         0.5013 
     48 O          30.0163   31.4323    1.2658 O.2       7 UNK        -0.5193 
     49 N          31.8697   32.2714    2.2670 N.am      8 UNK        -0.4253 
     50 CA         31.2180   32.9412    3.3929 C.3       8 UNK         0.0242 
     51 CB         32.0178   34.2168    3.7292 C.3       8 UNK        -0.2000 
     52 C          31.0960   31.9726    4.5878 C.2       8 UNK         0.4948 
     53 O          31.0864   30.7554    4.3978 O.2       8 UNK        -0.5275 
     54 N          31.0376   32.5200    5.8112 N.am      9 UNK        -0.4246 
     55 CA         31.0293   31.7647    7.0724 C.3       9 UNK         0.0261 
     56 CB         30.8026   32.7372    8.2414 C.3       9 UNK        -0.1959 
     57 C          32.3025   30.9251    7.3099 C.2       9 UNK         0.5033 
     58 O          32.2515   29.9518    8.0630 O.2       9 UNK        -0.5390 
     59 N          33.4040   31.3052    6.6544 N.am      10 UNK        -0.4215 
     60 CA         34.6501   30.5592    6.5488 C.3       10 UNK         0.0240 
     61 CB         35.6990   31.1761    7.4895 C.3       10 UNK        -0.1982 
     62 C          35.1076   30.6255    5.0860 C.2       10 UNK         0.4970 
     63 O          34.7292   31.5581    4.3696 O.2       10 UNK        -0.4916 
     64 N          35.9163   29.6413    4.6838 N.am      11 UNK        -0.4279 
     65 CA         36.4438   29.4823    3.3175 C.3       11 UNK         0.1003 
     66 C          37.9625   29.8031    3.2034 C.2       11 UNK         0.5709 
     67 N          38.6299   30.2587    4.2577 N.am      11 UNK        -0.7358 
     68 O          38.5471   29.6553    2.1327 O.2       11 UNK        -0.4999 
     69 C69        36.1046   28.0793    2.7423 C.3       12 UNK        -0.0954 
     70 S70        34.3084   27.7743    2.6344 S.3       12 UNK        -0.2268 
     71 C71        34.0409   26.7619    4.1176 C.3       12 UNK         0.0203 
     72 H72        23.9419   23.7452    2.2277 H         1 UNK         0.0888 
     73 H73        24.3339   22.5991    3.5089 H         1 UNK         0.0888 
     74 H74        25.3824   23.9901    3.2123 H         1 UNK         0.0888 
     75 H75        27.3108   23.1501    2.4304 H         1 UNK         0.3017 
     76 H76        27.5320   20.6955    1.0096 H         1 UNK         0.0873 
     77 H77        29.3390   21.2701    2.4349 H         1 UNK         0.0745 
     78 H78        29.9801   21.3354    0.8261 H         1 UNK         0.0745 
     79 H79        29.3446   23.1879    4.1208 H         1 UNK         0.0705 
     80 H80        30.9864   22.7068    3.7530 H         1 UNK         0.0705 
     81 H81        32.7604   24.4747    3.3653 H         1 UNK         0.1334 
     82 H82        32.0677   28.2748    5.2273 H         1 UNK         0.1417 
     83 H83        28.8584   25.4524    4.8554 H         1 UNK         0.1562 
     84 H84        29.9266   28.9170    5.9526 H         1 UNK         0.0748 
     85 H85        29.1346   27.5884    6.7579 H         1 UNK         0.0748 
     86 H86        29.6365   28.7674    3.2018 H         1 UNK         0.0940 
     87 H87        28.1820   29.6336    2.8197 H         1 UNK         0.0940 
     88 H88        28.3920   26.5769    2.5763 H         1 UNK         0.0703 
     89 H89        26.2096   28.4005    2.1472 H         1 UNK         0.3081 
     90 H90        23.9742   26.4786    1.8263 H         1 UNK         0.0719 
     91 H91        24.8384   28.7474   -0.0680 H         1 UNK         0.0809 
     92 H92        23.1677   28.4311    0.3877 H         1 UNK         0.0809 
     93 H93        24.3218   28.9173    1.6101 H         1 UNK         0.0809 
     94 H94        24.9061   26.0631   -0.9527 H         1 UNK         0.2990 
     95 H95        22.8614   23.2378   -1.2060 H         1 UNK         0.0690 
     96 H96        22.7239   23.9674   -3.5962 H         1 UNK         0.0788 
     97 H97        23.0507   25.6314   -3.1112 H         1 UNK         0.0788 
     98 H98        21.5872   24.8300   -2.5719 H         1 UNK         0.0788 
     99 H99        25.0087   22.8440   -1.4136 H         1 UNK         0.2993 
    100 H100       27.2129   23.0652   -2.9382 H         1 UNK         0.0949 
    101 H101       29.2759   24.4213   -2.4353 H         1 UNK         0.0767 
    102 H102       28.1974   25.2731   -3.5307 H         1 UNK         0.0767 
    103 H103       28.2648   25.7327   -1.8322 H         1 UNK         0.0767 
    104 H104       27.1313   24.0023   -0.0949 H         1 UNK         0.3013 
    105 H105       30.4311   26.5343    1.5995 H         1 UNK         0.3121 
    106 H106       30.4726   26.8500   -1.2441 H         1 UNK         0.0774 
    107 H107       32.8498   26.0489   -0.9783 H         1 UNK         0.0815 
    108 H108       32.6772   26.1602    0.7675 H         1 UNK         0.0815 
    109 H109       31.6902   25.0255   -0.1507 H         1 UNK         0.0815 
    110 H110       31.2760   29.0549    1.2963 H         1 UNK         0.2987 
    111 H111       31.9033   31.1356   -0.6309 H         1 UNK         0.0949 
    112 H112       33.8985   30.5231    1.6261 H         1 UNK         0.0806 
    113 H113       34.2003   30.2264   -0.0804 H         1 UNK         0.0806 
    114 H114       33.9901   31.8698    0.4910 H         1 UNK         0.0806 
    115 H115       32.8786   32.2323    2.3007 H         1 UNK         0.3010 
    116 H116       30.2063   33.2357    3.1063 H         1 UNK         0.0829 
    117 H117       32.1546   34.8379    2.8436 H         1 UNK         0.0813 
    118 H118       31.5022   34.8351    4.4647 H         1 UNK         0.0813 
    119 H119       33.0081   33.9828    4.1230 H         1 UNK         0.0813 
    120 H120       31.0411   33.5269    5.8886 H         1 UNK         0.3038 
    121 H121       30.1860   31.0724    7.0367 H         1 UNK         0.0769 
    122 H122       31.6049   33.4723    8.3173 H         1 UNK         0.0811 
    123 H123       30.7612   32.2018    9.1912 H         1 UNK         0.0811 
    124 H124       29.8605   33.2752    8.1350 H         1 UNK         0.0811 
    125 H125       33.3303   32.0703    5.9966 H         1 UNK         0.3204 
    126 H126       34.4837   29.5128    6.8149 H         1 UNK         0.0748 
    127 H127       35.3597   31.1541    8.5254 H         1 UNK         0.0771 
    128 H128       36.6397   30.6262    7.4462 H         1 UNK         0.0771 
    129 H129       35.9125   32.2141    7.2305 H         1 UNK         0.0771 
    130 H130       36.2064   28.9380    5.3471 H         1 UNK         0.2980 
    131 H131       35.9706   30.2157    2.6640 H         1 UNK         0.0545 
    132 H132       38.1622   30.4143    5.1354 H         1 UNK         0.3459 
    133 H133       39.6114   30.4683    4.1647 H         1 UNK         0.3459 
    134 H134       36.5009   27.9760    1.7307 H         1 UNK         0.0616 
    135 H135       36.5782   27.2938    3.3337 H         1 UNK         0.0616 
    136 H136       34.3915   27.3005    4.9983 H         1 UNK         0.0634 
    137 H137       34.6445   25.8555    4.0482 H         1 UNK         0.0634 
@<TRIPOS>BOND
     1    1    2 1    
     2    1   72 1    
     3    1   73 1    
     4    1   74 1    
     5    2    3 2    
     6    2    4 am   BACKBONE|DICT|INTERRES
     7    4    5 1    
     8    4   75 1    
     9    5    6 1    
    10    5   35 1    
    11    5   76 1    
    12    6    7 1    
    13    6   77 1    
    14    6   78 1    
    15    7    8 1    
    16    8    9 1    
    17    8   79 1    
    18    8   80 1    
    19    9   10 ar   
    20    9   14 ar   
    21   10   11 ar   
    22   10   81 1    
    23   11   12 ar   
    24   11   71 1    
    25   12   13 ar   
    26   12   82 1    
    27   13   14 ar   
    28   13   15 1    
    29   14   83 1    
    30   15   16 1    
    31   15   84 1    
    32   15   85 1    
    33   16   17 1    
    34   17   18 1    
    35   17   86 1    
    36   17   87 1    
    37   18   19 1    
    38   18   37 1    
    39   18   88 1    
    40   19   20 am   BACKBONE|DICT|INTERRES
    41   19   89 1    
    42   20   21 2    
    43   20   22 1    
    44   22   23 1    
    45   22   24 1    
    46   22   90 1    
    47   23   91 1    
    48   23   92 1    
    49   23   93 1    
    50   24   25 am   BACKBONE|DICT|INTERRES
    51   24   94 1    
    52   25   26 2    
    53   25   27 1    
    54   27   28 1    
    55   27   29 1    
    56   27   95 1    
    57   28   96 1    
    58   28   97 1    
    59   28   98 1    
    60   29   30 am   BACKBONE|DICT|INTERRES
    61   29   99 1    
    62   30   31 2    
    63   30   32 1    
    64   32   33 1    
    65   32   34 1    
    66   32  100 1    
    67   33  101 1    
    68   33  102 1    
    69   33  103 1    
    70   34   35 am   BACKBONE|DICT|INTERRES
    71   34  104 1    
    72   35   36 2    
    73   37   38 2    
    74   37   39 am   BACKBONE|DICT|INTERRES
    75   39   40 1    
    76   39  105 1    
    77   40   41 1    
    78   40   42 1    
    79   40  106 1    
    80   41  107 1    
    81   41  108 1    
    82   41  109 1    
    83   42   43 2    
    84   42   44 am   BACKBONE|DICT|INTERRES
    85   44   45 1    
    86   44  110 1    
    87   45   46 1    
    88   45   47 1    
    89   45  111 1    
    90   46  112 1    
    91   46  113 1    
    92   46  114 1    
    93   47   48 2    
    94   47   49 am   BACKBONE|DICT|INTERRES
    95   49   50 1    
    96   49  115 1    
    97   50   51 1    
    98   50   52 1    
    99   50  116 1    
   100   51  117 1    
   101   51  118 1    
   102   51  119 1    
   103   52   53 2    
   104   52   54 am   BACKBONE|DICT|INTERRES
   105   54   55 1    
   106   54  120 1    
   107   55   56 1    
   108   55   57 1    
   109   55  121 1    
   110   56  122 1    
   111   56  123 1    
   112   56  124 1    
   113   57   58 2    
   114   57   59 am   BACKBONE|DICT|INTERRES
   115   59   60 1    
   116   59  125 1    
   117   60   61 1    
   118   60   62 1    
   119   60  126 1    
   120   61  127 1    
   121   61  128 1    
   122   61  129 1    
   123   62   63 2    
   124   62   64 am   BACKBONE|DICT|INTERRES
   125   64   65 1    
   126   64  130 1    
   127   65   66 1    
   128   65   69 1    
   129   65  131 1    
   130   66   67 am   BACKBONE|DICT|INTERRES
   131   66   68 2    
   132   67  132 1    
   133   67  133 1    
   134   69   70 1    
   135   69  134 1    
   136   69  135 1    
   137   70   71 1    
   138   71  136 1    
   139   71  137 1    
@<TRIPOS>SUBSTRUCTURE
     1 UNK         1 GROUP             0       ****    0 ROOT    
