@<TRIPOS>MOLECULE
3R136
137   139    1
SMALL
USER_CHARGES


@<TRIPOS>ATOM
      1 CA         26.1918   27.6142    3.7706 C.3       0 UNK        -0.1979 
      2 C          26.6244   26.1549    3.7730 C.2       0 UNK         0.4864 
      3 O          26.3240   25.4308    4.7235 O.2       0 UNK        -0.5359 
      4 N          27.3025   25.7110    2.7074 N.am      1 UNK        -0.4318 
      5 CA         27.6460   24.3097    2.4607 C.3       1 UNK         0.0824 
      6 C6         29.0571   24.1488    1.8356 C.3       12 UNK        -0.0944 
      7 S7         30.3524   24.3032    3.1118 S.3       12 UNK        -0.2672 
      8 C8         31.8851   24.1512    2.1386 C.3       12 UNK         0.0333 
      9 C9         32.2682   25.4637    1.4692 C.ar      12 UNK        -0.0807 
     10 C10        32.8558   26.4890    2.2181 C.ar      12 UNK        -0.0894 
     11 C11        33.1898   27.7073    1.6174 C.ar      12 UNK        -0.0804 
     12 C12        32.9456   27.8891    0.2535 C.ar      12 UNK        -0.0824 
     13 C13        32.3691   26.8687   -0.5075 C.ar      12 UNK        -0.0762 
     14 C14        32.0402   25.6544    0.1036 C.ar      12 UNK        -0.0782 
     15 C15        32.0967   27.0882   -1.9882 C.3       12 UNK         0.0230 
     16 S16        30.5096   27.9385   -2.2574 S.3       12 UNK        -0.2608 
     17 C17        29.3403   26.5979   -1.8640 C.3       12 UNK        -0.0989 
     18 CA         27.8599   27.0403   -1.9652 C.3       5 UNK         0.0716 
     19 N          26.9662   25.8971   -2.1334 N.am      5 UNK        -0.4135 
     20 C          26.7663   25.2816   -3.3062 C.2       4 UNK         0.5031 
     21 O          27.2947   25.6366   -4.3613 O.2       4 UNK        -0.5229 
     22 CA         25.8383   24.0576   -3.3291 C.3       4 UNK         0.0329 
     23 CB         26.6414   22.7677   -3.0942 C.3       4 UNK        -0.2001 
     24 N          24.7377   24.1270   -2.3688 N.am      4 UNK        -0.4303 
     25 C          23.6628   24.9218   -2.4878 C.2       3 UNK         0.5044 
     26 O          23.5265   25.7499   -3.3892 O.2       3 UNK        -0.5152 
     27 CA         22.5257   24.7419   -1.4608 C.3       3 UNK         0.0319 
     28 CB         21.2612   24.1951   -2.1454 C.3       3 UNK        -0.2001 
     29 N          22.8974   23.8373   -0.3697 N.am      3 UNK        -0.4354 
     30 C          23.5664   24.2144    0.7257 C.2       2 UNK         0.4964 
     31 O          23.7939   25.3923    1.0101 O.2       2 UNK        -0.5047 
     32 CA         24.0878   23.0932    1.6493 C.3       2 UNK         0.0288 
     33 CB         24.1616   21.7006    0.9790 C.3       2 UNK        -0.2113 
     34 N          25.3845   23.4498    2.2345 N.am      2 UNK        -0.4145 
     35 C          26.5173   23.7528    1.5794 C.2       1 UNK         0.5006 
     36 O          26.6579   23.6829    0.3553 O.2       1 UNK        -0.5103 
     37 C          27.4264   27.8517   -0.7364 C.2       5 UNK         0.5055 
     38 O          27.1643   27.2698    0.3205 O.2       5 UNK        -0.5220 
     39 N          27.4089   29.1826   -0.8835 N.am      6 UNK        -0.4450 
     40 CA         27.1666   30.1523    0.1845 C.3       6 UNK         0.0367 
     41 CB         26.6425   31.4613   -0.4343 C.3       6 UNK        -0.1929 
     42 C          28.4537   30.3618    1.0020 C.2       6 UNK         0.5070 
     43 O          29.1575   31.3558    0.8138 O.2       6 UNK        -0.5237 
     44 N          28.7586   29.3775    1.8527 N.am      7 UNK        -0.4739 
     45 CA         29.9434   29.3196    2.7077 C.3       7 UNK         0.0276 
     46 CB         30.0149   27.9216    3.3368 C.3       7 UNK        -0.1927 
     47 C          29.9678   30.3940    3.8084 C.2       7 UNK         0.5013 
     48 O          28.9267   30.9492    4.1689 O.2       7 UNK        -0.5193 
     49 N          31.1659   30.6165    4.3550 N.am      8 UNK        -0.4253 
     50 CA         31.4508   31.4880    5.4875 C.3       8 UNK         0.0242 
     51 CB         31.9462   32.8498    4.9695 C.3       8 UNK        -0.2000 
     52 C          32.5167   30.8077    6.3549 C.2       8 UNK         0.4948 
     53 O          33.2146   29.9071    5.8771 O.2       8 UNK        -0.5275 
     54 N          32.6518   31.2784    7.6024 N.am      9 UNK        -0.4246 
     55 CA         33.5660   30.7498    8.6253 C.3       9 UNK         0.0261 
     56 CB         33.3438   31.5125    9.9417 C.3       9 UNK        -0.1959 
     57 C          35.0593   30.7643    8.2449 C.2       9 UNK         0.5033 
     58 O          35.8305   29.9964    8.8221 O.2       9 UNK        -0.5390 
     59 N          35.4380   31.5993    7.2663 N.am      10 UNK        -0.4215 
     60 CA         36.7798   31.6868    6.6825 C.3       10 UNK         0.0240 
     61 CB         36.7949   32.8037    5.6259 C.3       10 UNK        -0.1982 
     62 C          37.2965   30.3679    6.0740 C.2       10 UNK         0.4970 
     63 O          38.5117   30.1692    6.0403 O.2       10 UNK        -0.4916 
     64 N          36.3852   29.4917    5.6270 N.am      11 UNK        -0.4279 
     65 CA         36.7087   28.1335    5.1591 C.3       11 UNK         0.1003 
     66 C          36.9359   27.1041    6.3066 C.2       11 UNK         0.5709 
     67 N          36.7414   27.4465    7.5757 N.am      11 UNK        -0.7358 
     68 O          37.3143   25.9658    6.0397 O.2       11 UNK        -0.4999 
     69 C69        35.6752   27.6108    4.1271 C.3       12 UNK        -0.0954 
     70 S70        35.5739   28.6770    2.6488 S.3       12 UNK        -0.2268 
     71 C71        33.7770   28.8446    2.4404 C.3       12 UNK         0.0203 
     72 H72        26.2351   28.0470    2.7723 H         1 UNK         0.0888 
     73 H73        26.8264   28.2026    4.4327 H         1 UNK         0.0888 
     74 H74        25.1637   27.6996    4.1215 H         1 UNK         0.0888 
     75 H75        27.4011   26.3177    1.8958 H         1 UNK         0.3017 
     76 H76        27.6311   23.7408    3.3933 H         1 UNK         0.0873 
     77 H77        29.2234   24.8846    1.0483 H         1 UNK         0.0745 
     78 H78        29.1682   23.1659    1.3735 H         1 UNK         0.0745 
     79 H79        32.6918   23.8424    2.8050 H         1 UNK         0.0705 
     80 H80        31.7766   23.3521    1.4035 H         1 UNK         0.0705 
     81 H81        33.0307   26.3437    3.2750 H         1 UNK         0.1334 
     82 H82        33.1933   28.8312   -0.2168 H         1 UNK         0.1417 
     83 H83        31.5929   24.8622   -0.4812 H         1 UNK         0.1562 
     84 H84        32.1038   26.1399   -2.5279 H         1 UNK         0.0748 
     85 H85        32.8964   27.6900   -2.4228 H         1 UNK         0.0748 
     86 H86        29.5515   26.1984   -0.8723 H         1 UNK         0.0940 
     87 H87        29.5424   25.7853   -2.5635 H         1 UNK         0.0940 
     88 H88        27.7410   27.6796   -2.8434 H         1 UNK         0.0703 
     89 H89        26.5174   25.5558   -1.2915 H         1 UNK         0.3081 
     90 H90        25.4024   24.0008   -4.3291 H         1 UNK         0.0719 
     91 H91        27.1029   22.7506   -2.1064 H         1 UNK         0.0809 
     92 H92        26.0103   21.8835   -3.1858 H         1 UNK         0.0809 
     93 H93        27.4427   22.6691   -3.8279 H         1 UNK         0.0809 
     94 H94        24.7973   23.5121   -1.5704 H         1 UNK         0.2990 
     95 H95        22.2918   25.7285   -1.0550 H         1 UNK         0.0690 
     96 H96        20.4370   24.1003   -1.4381 H         1 UNK         0.0788 
     97 H97        21.4344   23.2160   -2.5938 H         1 UNK         0.0788 
     98 H98        20.9267   24.8629   -2.9407 H         1 UNK         0.0788 
     99 H99        22.7299   22.8520   -0.5190 H         1 UNK         0.2993 
    100 H100       23.3812   23.0306    2.4784 H         1 UNK         0.0949 
    101 H101       23.1727   21.3397    0.6941 H         1 UNK         0.0767 
    102 H102       24.7875   21.7058    0.0857 H         1 UNK         0.0767 
    103 H103       24.5775   20.9613    1.6639 H         1 UNK         0.0767 
    104 H104       25.3721   23.6239    3.2312 H         1 UNK         0.3013 
    105 H105       27.6984   29.5687   -1.7711 H         1 UNK         0.3121 
    106 H106       26.3944   29.7682    0.8548 H         1 UNK         0.0774 
    107 H107       25.7010   31.3018   -0.9599 H         1 UNK         0.0815 
    108 H108       27.3528   31.8914   -1.1417 H         1 UNK         0.0815 
    109 H109       26.4590   32.2093    0.3382 H         1 UNK         0.0815 
    110 H110       28.1415   28.5791    1.8779 H         1 UNK         0.2987 
    111 H111       30.8145   29.4657    2.0656 H         1 UNK         0.0949 
    112 H112       29.1860   27.7381    4.0190 H         1 UNK         0.0806 
    113 H113       29.9990   27.1491    2.5688 H         1 UNK         0.0806 
    114 H114       30.9323   27.7888    3.9106 H         1 UNK         0.0806 
    115 H115       31.9529   30.0421    4.0846 H         1 UNK         0.3010 
    116 H116       30.5503   31.6243    6.0907 H         1 UNK         0.0829 
    117 H117       31.1982   33.3250    4.3343 H         1 UNK         0.0813 
    118 H118       32.1522   33.5362    5.7916 H         1 UNK         0.0813 
    119 H119       32.8629   32.7507    4.3864 H         1 UNK         0.0813 
    120 H120       32.0465   32.0320    7.8972 H         1 UNK         0.3038 
    121 H121       33.2949   29.7045    8.7877 H         1 UNK         0.0769 
    122 H122       33.5653   32.5752    9.8351 H         1 UNK         0.0811 
    123 H123       33.9873   31.1238   10.7325 H         1 UNK         0.0811 
    124 H124       32.3152   31.4154   10.2898 H         1 UNK         0.0811 
    125 H125       34.7283   32.1879    6.8565 H         1 UNK         0.3204 
    126 H126       37.4662   31.9628    7.4856 H         1 UNK         0.0748 
    127 H127       36.5250   33.7667    6.0601 H         1 UNK         0.0771 
    128 H128       37.7887   32.9153    5.1896 H         1 UNK         0.0771 
    129 H129       36.1022   32.5956    4.8091 H         1 UNK         0.0771 
    130 H130       35.3998   29.7163    5.6971 H         1 UNK         0.2980 
    131 H131       37.6661   28.1855    4.6372 H         1 UNK         0.0545 
    132 H132       36.9035   26.7600    8.2948 H         1 UNK         0.3459 
    133 H133       36.4457   28.3813    7.8357 H         1 UNK         0.3459 
    134 H134       35.9397   26.6089    3.7841 H         1 UNK         0.0616 
    135 H135       34.6954   27.5237    4.5989 H         1 UNK         0.0616 
    136 H136       33.5744   29.8008    1.9556 H         1 UNK         0.0634 
    137 H137       33.2910   28.8919    3.4136 H         1 UNK         0.0634 
@<TRIPOS>BOND
     1    1    2 1    
     2    1   72 1    
     3    1   73 1    
     4    1   74 1    
     5    2    3 2    
     6    2    4 am   BACKBONE|DICT|INTERRES
     7    4    5 1    
     8    4   75 1    
     9    5    6 1    
    10    5   35 1    
    11    5   76 1    
    12    6    7 1    
    13    6   77 1    
    14    6   78 1    
    15    7    8 1    
    16    8    9 1    
    17    8   79 1    
    18    8   80 1    
    19    9   10 ar   
    20    9   14 ar   
    21   10   11 ar   
    22   10   81 1    
    23   11   12 ar   
    24   11   71 1    
    25   12   13 ar   
    26   12   82 1    
    27   13   14 ar   
    28   13   15 1    
    29   14   83 1    
    30   15   16 1    
    31   15   84 1    
    32   15   85 1    
    33   16   17 1    
    34   17   18 1    
    35   17   86 1    
    36   17   87 1    
    37   18   19 1    
    38   18   37 1    
    39   18   88 1    
    40   19   20 am   BACKBONE|DICT|INTERRES
    41   19   89 1    
    42   20   21 2    
    43   20   22 1    
    44   22   23 1    
    45   22   24 1    
    46   22   90 1    
    47   23   91 1    
    48   23   92 1    
    49   23   93 1    
    50   24   25 am   BACKBONE|DICT|INTERRES
    51   24   94 1    
    52   25   26 2    
    53   25   27 1    
    54   27   28 1    
    55   27   29 1    
    56   27   95 1    
    57   28   96 1    
    58   28   97 1    
    59   28   98 1    
    60   29   30 am   BACKBONE|DICT|INTERRES
    61   29   99 1    
    62   30   31 2    
    63   30   32 1    
    64   32   33 1    
    65   32   34 1    
    66   32  100 1    
    67   33  101 1    
    68   33  102 1    
    69   33  103 1    
    70   34   35 am   BACKBONE|DICT|INTERRES
    71   34  104 1    
    72   35   36 2    
    73   37   38 2    
    74   37   39 am   BACKBONE|DICT|INTERRES
    75   39   40 1    
    76   39  105 1    
    77   40   41 1    
    78   40   42 1    
    79   40  106 1    
    80   41  107 1    
    81   41  108 1    
    82   41  109 1    
    83   42   43 2    
    84   42   44 am   BACKBONE|DICT|INTERRES
    85   44   45 1    
    86   44  110 1    
    87   45   46 1    
    88   45   47 1    
    89   45  111 1    
    90   46  112 1    
    91   46  113 1    
    92   46  114 1    
    93   47   48 2    
    94   47   49 am   BACKBONE|DICT|INTERRES
    95   49   50 1    
    96   49  115 1    
    97   50   51 1    
    98   50   52 1    
    99   50  116 1    
   100   51  117 1    
   101   51  118 1    
   102   51  119 1    
   103   52   53 2    
   104   52   54 am   BACKBONE|DICT|INTERRES
   105   54   55 1    
   106   54  120 1    
   107   55   56 1    
   108   55   57 1    
   109   55  121 1    
   110   56  122 1    
   111   56  123 1    
   112   56  124 1    
   113   57   58 2    
   114   57   59 am   BACKBONE|DICT|INTERRES
   115   59   60 1    
   116   59  125 1    
   117   60   61 1    
   118   60   62 1    
   119   60  126 1    
   120   61  127 1    
   121   61  128 1    
   122   61  129 1    
   123   62   63 2    
   124   62   64 am   BACKBONE|DICT|INTERRES
   125   64   65 1    
   126   64  130 1    
   127   65   66 1    
   128   65   69 1    
   129   65  131 1    
   130   66   67 am   BACKBONE|DICT|INTERRES
   131   66   68 2    
   132   67  132 1    
   133   67  133 1    
   134   69   70 1    
   135   69  134 1    
   136   69  135 1    
   137   70   71 1    
   138   71  136 1    
   139   71  137 1    
@<TRIPOS>SUBSTRUCTURE
     1 UNK         1 GROUP             0       ****    0 ROOT    
