@<TRIPOS>MOLECULE
3R136
137   139    1
SMALL
USER_CHARGES


@<TRIPOS>ATOM
      1 CA         26.0728   18.3282    1.8329 C.3       0 UNK        -0.1979 
      2 C          27.0796   18.9291    0.8628 C.2       0 UNK         0.4864 
      3 O          27.1341   18.5148   -0.2967 O.2       0 UNK        -0.5359 
      4 N          27.8812   19.8942    1.3303 N.am      1 UNK        -0.4318 
      5 CA         28.8726   20.6196    0.5292 C.3       1 UNK         0.0824 
      6 C6         29.8949   21.3665    1.4193 C.3       12 UNK        -0.0944 
      7 S7         30.9255   20.2240    2.4008 S.3       12 UNK        -0.2672 
      8 C8         30.6877   20.8449    4.0987 C.3       12 UNK         0.0333 
      9 C9         31.0918   22.3071    4.2434 C.ar      12 UNK        -0.0807 
     10 C10        32.4110   22.7054    4.0013 C.ar      12 UNK        -0.0894 
     11 C11        32.7734   24.0515    4.1013 C.ar      12 UNK        -0.0804 
     12 C12        31.8102   25.0002    4.4543 C.ar      12 UNK        -0.0824 
     13 C13        30.4930   24.6138    4.7125 C.ar      12 UNK        -0.0762 
     14 C14        30.1404   23.2649    4.6102 C.ar      12 UNK        -0.0782 
     15 C15        29.4480   25.6531    5.0864 C.3       12 UNK         0.0230 
     16 S16        28.3299   25.9603    3.6892 S.3       12 UNK        -0.2608 
     17 C17        27.3389   27.3651    4.2996 C.3       12 UNK        -0.0989 
     18 CA         27.6988   28.6921    3.5862 C.3       5 UNK         0.0716 
     19 N          27.6102   28.5667    2.1278 N.am      5 UNK        -0.4135 
     20 C          27.8731   29.5241    1.2310 C.2       4 UNK         0.5031 
     21 O          28.2049   30.6708    1.5318 O.2       4 UNK        -0.5229 
     22 CA         27.7873   29.1094   -0.2496 C.3       4 UNK         0.0329 
     23 CB         27.9730   30.2987   -1.2113 C.3       4 UNK        -0.2001 
     24 N          28.7857   28.0837   -0.5633 N.am      4 UNK        -0.4303 
     25 C          28.6489   26.7759   -0.3123 C.2       3 UNK         0.5044 
     26 O          27.6438   26.2820    0.2047 O.2       3 UNK        -0.5152 
     27 CA         29.8586   25.8864   -0.6522 C.3       3 UNK         0.0319 
     28 CB         30.7615   25.7158    0.5826 C.3       3 UNK        -0.2001 
     29 N          29.4670   24.5616   -1.1387 N.am      3 UNK        -0.4354 
     30 C          28.7646   24.3144   -2.2547 C.2       2 UNK         0.4964 
     31 O          28.3975   25.1945   -3.0351 O.2       2 UNK        -0.5047 
     32 CA         28.4397   22.8430   -2.5887 C.3       2 UNK         0.0288 
     33 CB         29.0759   22.4372   -3.9303 C.3       2 UNK        -0.2113 
     34 N          28.8734   21.8907   -1.5601 N.am      2 UNK        -0.4145 
     35 C          28.1929   21.6078   -0.4411 C.2       1 UNK         0.5006 
     36 O          27.1101   22.1221   -0.1485 O.2       1 UNK        -0.5103 
     37 C          26.8174   29.8424    4.1133 C.2       5 UNK         0.5055 
     38 O          25.6608   29.9580    3.7005 O.2       5 UNK        -0.5220 
     39 N          27.3870   30.6749    4.9957 N.am      6 UNK        -0.4450 
     40 CA         26.8179   31.8746    5.6313 C.3       6 UNK         0.0367 
     41 CB         25.5359   31.5526    6.4249 C.3       6 UNK        -0.1929 
     42 C          26.6021   33.0709    4.6830 C.2       6 UNK         0.5070 
     43 O          26.7672   34.2100    5.1210 O.2       6 UNK        -0.5237 
     44 N          26.2587   32.8150    3.4139 N.am      7 UNK        -0.4739 
     45 CA         26.1740   33.8190    2.3490 C.3       7 UNK         0.0276 
     46 CB         25.4577   33.2126    1.1318 C.3       7 UNK        -0.1927 
     47 C          27.5598   34.3604    1.9553 C.2       7 UNK         0.5013 
     48 O          27.7023   35.5617    1.7229 O.2       7 UNK        -0.5193 
     49 N          28.5494   33.4637    1.9164 N.am      8 UNK        -0.4253 
     50 CA         29.9702   33.7379    1.7390 C.3       8 UNK         0.0242 
     51 CB         30.4028   33.2088    0.3584 C.3       8 UNK        -0.2000 
     52 C          30.7509   33.0583    2.8776 C.2       8 UNK         0.4948 
     53 O          30.1512   32.4829    3.7921 O.2       8 UNK        -0.5275 
     54 N          32.0858   33.1449    2.8091 N.am      9 UNK        -0.4246 
     55 CA         33.0108   32.4855    3.7337 C.3       9 UNK         0.0261 
     56 CB         34.4413   32.9707    3.4463 C.3       9 UNK        -0.1959 
     57 C          32.9374   30.9519    3.6282 C.2       9 UNK         0.5033 
     58 O          32.7087   30.4177    2.5386 O.2       9 UNK        -0.5390 
     59 N          33.1659   30.2715    4.7581 N.am      10 UNK        -0.4215 
     60 CA         33.1803   28.8129    4.8706 C.3       10 UNK         0.0240 
     61 CB         32.9810   28.4184    6.3463 C.3       10 UNK        -0.1982 
     62 C          34.4666   28.2177    4.2683 C.2       10 UNK         0.4970 
     63 O          35.3734   27.8333    5.0091 O.2       10 UNK        -0.4916 
     64 N          34.5074   28.1655    2.9327 N.am      11 UNK        -0.4279 
     65 CA         35.6131   27.6609    2.1022 C.3       11 UNK         0.1003 
     66 C          36.8921   28.5507    2.1876 C.2       11 UNK         0.5709 
     67 N          38.0431   28.0609    1.7446 N.am      11 UNK        -0.7358 
     68 O          36.8478   29.7076    2.6039 O.2       11 UNK        -0.4999 
     69 C69        35.8902   26.1372    2.3003 C.3       12 UNK        -0.0954 
     70 S70        34.3915   25.1071    2.1315 S.3       12 UNK        -0.2268 
     71 C71        34.2024   24.4912    3.8329 C.3       12 UNK         0.0203 
     72 H72        25.0590   18.4835    1.4648 H         1 UNK         0.0888 
     73 H73        26.2399   17.2559    1.9311 H         1 UNK         0.0888 
     74 H74        26.1455   18.7745    2.8246 H         1 UNK         0.0888 
     75 H75        27.7792   20.2059    2.2847 H         1 UNK         0.3017 
     76 H76        29.4138   19.8852   -0.0722 H         1 UNK         0.0873 
     77 H77        30.5799   21.9636    0.8141 H         1 UNK         0.0745 
     78 H78        29.3798   22.0719    2.0737 H         1 UNK         0.0745 
     79 H79        29.6459   20.6957    4.3864 H         1 UNK         0.0705 
     80 H80        31.2851   20.2408    4.7829 H         1 UNK         0.0705 
     81 H81        33.1496   21.9679    3.7177 H         1 UNK         0.1334 
     82 H82        32.0877   26.0415    4.5197 H         1 UNK         0.1417 
     83 H83        29.1172   22.9683    4.7978 H         1 UNK         0.1562 
     84 H84        29.9248   26.5890    5.3826 H         1 UNK         0.0748 
     85 H85        28.8729   25.3074    5.9467 H         1 UNK         0.0748 
     86 H86        27.4675   27.4599    5.3797 H         1 UNK         0.0940 
     87 H87        26.2860   27.1213    4.1426 H         1 UNK         0.0940 
     88 H88        28.7412   28.9286    3.8113 H         1 UNK         0.0703 
     89 H89        27.3864   27.6422    1.7756 H         1 UNK         0.3081 
     90 H90        26.7875   28.7026   -0.4165 H         1 UNK         0.0719 
     91 H91        28.9638   30.7440   -1.1197 H         1 UNK         0.0809 
     92 H92        27.8382   29.9930   -2.2489 H         1 UNK         0.0809 
     93 H93        27.2433   31.0836   -1.0096 H         1 UNK         0.0809 
     94 H94        29.6582   28.4147   -0.9495 H         1 UNK         0.2990 
     95 H95        30.4361   26.3704   -1.4426 H         1 UNK         0.0690 
     96 H96        31.6657   25.1562    0.3422 H         1 UNK         0.0788 
     97 H97        30.2487   25.1894    1.3892 H         1 UNK         0.0788 
     98 H98        31.0777   26.6821    0.9782 H         1 UNK         0.0788 
     99 H99        29.7029   23.7809   -0.5474 H         1 UNK         0.2993 
    100 H100       27.3544   22.7751   -2.6943 H         1 UNK         0.0949 
    101 H101       28.7368   23.0867   -4.7387 H         1 UNK         0.0767 
    102 H102       30.1643   22.5003   -3.8968 H         1 UNK         0.0767 
    103 H103       28.8058   21.4173   -4.2052 H         1 UNK         0.0767 
    104 H104       29.7589   21.4315   -1.7228 H         1 UNK         0.3013 
    105 H105       28.3647   30.5248    5.2067 H         1 UNK         0.3121 
    106 H106       27.5706   32.1963    6.3531 H         1 UNK         0.0774 
    107 H107       25.2058   32.4224    6.9944 H         1 UNK         0.0815 
    108 H108       24.7106   31.2653    5.7730 H         1 UNK         0.0815 
    109 H109       25.7010   30.7435    7.1362 H         1 UNK         0.0815 
    110 H110       26.1051   31.8454    3.1574 H         1 UNK         0.2987 
    111 H111       25.5800   34.6590    2.7159 H         1 UNK         0.0949 
    112 H112       25.9900   32.3445    0.7419 H         1 UNK         0.0806 
    113 H113       24.4448   32.8986    1.3841 H         1 UNK         0.0806 
    114 H114       25.3799   33.9397    0.3223 H         1 UNK         0.0806 
    115 H115       28.3337   32.4877    2.1102 H         1 UNK         0.3010 
    116 H116       30.1595   34.8118    1.7956 H         1 UNK         0.0829 
    117 H117       29.7617   33.5962   -0.4337 H         1 UNK         0.0813 
    118 H118       31.4237   33.5056    0.1172 H         1 UNK         0.0813 
    119 H119       30.3603   32.1195    0.3191 H         1 UNK         0.0813 
    120 H120       32.5006   33.6114    2.0161 H         1 UNK         0.3038 
    121 H121       32.7363   32.7819    4.7484 H         1 UNK         0.0769 
    122 H122       34.5254   34.0522    3.5557 H         1 UNK         0.0811 
    123 H123       34.7608   32.7076    2.4368 H         1 UNK         0.0811 
    124 H124       35.1548   32.5201    4.1377 H         1 UNK         0.0811 
    125 H125       33.3870   30.7873    5.5980 H         1 UNK         0.3204 
    126 H126       32.3334   28.4153    4.3067 H         1 UNK         0.0748 
    127 H127       32.0210   28.7706    6.7244 H         1 UNK         0.0771 
    128 H128       32.9974   27.3345    6.4680 H         1 UNK         0.0771 
    129 H129       33.7641   28.8282    6.9857 H         1 UNK         0.0771 
    130 H130       33.7577   28.6287    2.4312 H         1 UNK         0.2980 
    131 H131       35.2634   27.7907    1.0777 H         1 UNK         0.0545 
    132 H132       38.8662   28.6418    1.7807 H         1 UNK         0.3459 
    133 H133       38.1061   27.1250    1.3768 H         1 UNK         0.3459 
    134 H134       36.3616   25.9542    3.2671 H         1 UNK         0.0616 
    135 H135       36.5972   25.7798    1.5507 H         1 UNK         0.0616 
    136 H136       34.4764   25.2674    4.5475 H         1 UNK         0.0634 
    137 H137       34.8979   23.6664    3.9947 H         1 UNK         0.0634 
@<TRIPOS>BOND
     1    1    2 1    
     2    1   72 1    
     3    1   73 1    
     4    1   74 1    
     5    2    3 2    
     6    2    4 am   BACKBONE|DICT|INTERRES
     7    4    5 1    
     8    4   75 1    
     9    5    6 1    
    10    5   35 1    
    11    5   76 1    
    12    6    7 1    
    13    6   77 1    
    14    6   78 1    
    15    7    8 1    
    16    8    9 1    
    17    8   79 1    
    18    8   80 1    
    19    9   10 ar   
    20    9   14 ar   
    21   10   11 ar   
    22   10   81 1    
    23   11   12 ar   
    24   11   71 1    
    25   12   13 ar   
    26   12   82 1    
    27   13   14 ar   
    28   13   15 1    
    29   14   83 1    
    30   15   16 1    
    31   15   84 1    
    32   15   85 1    
    33   16   17 1    
    34   17   18 1    
    35   17   86 1    
    36   17   87 1    
    37   18   19 1    
    38   18   37 1    
    39   18   88 1    
    40   19   20 am   BACKBONE|DICT|INTERRES
    41   19   89 1    
    42   20   21 2    
    43   20   22 1    
    44   22   23 1    
    45   22   24 1    
    46   22   90 1    
    47   23   91 1    
    48   23   92 1    
    49   23   93 1    
    50   24   25 am   BACKBONE|DICT|INTERRES
    51   24   94 1    
    52   25   26 2    
    53   25   27 1    
    54   27   28 1    
    55   27   29 1    
    56   27   95 1    
    57   28   96 1    
    58   28   97 1    
    59   28   98 1    
    60   29   30 am   BACKBONE|DICT|INTERRES
    61   29   99 1    
    62   30   31 2    
    63   30   32 1    
    64   32   33 1    
    65   32   34 1    
    66   32  100 1    
    67   33  101 1    
    68   33  102 1    
    69   33  103 1    
    70   34   35 am   BACKBONE|DICT|INTERRES
    71   34  104 1    
    72   35   36 2    
    73   37   38 2    
    74   37   39 am   BACKBONE|DICT|INTERRES
    75   39   40 1    
    76   39  105 1    
    77   40   41 1    
    78   40   42 1    
    79   40  106 1    
    80   41  107 1    
    81   41  108 1    
    82   41  109 1    
    83   42   43 2    
    84   42   44 am   BACKBONE|DICT|INTERRES
    85   44   45 1    
    86   44  110 1    
    87   45   46 1    
    88   45   47 1    
    89   45  111 1    
    90   46  112 1    
    91   46  113 1    
    92   46  114 1    
    93   47   48 2    
    94   47   49 am   BACKBONE|DICT|INTERRES
    95   49   50 1    
    96   49  115 1    
    97   50   51 1    
    98   50   52 1    
    99   50  116 1    
   100   51  117 1    
   101   51  118 1    
   102   51  119 1    
   103   52   53 2    
   104   52   54 am   BACKBONE|DICT|INTERRES
   105   54   55 1    
   106   54  120 1    
   107   55   56 1    
   108   55   57 1    
   109   55  121 1    
   110   56  122 1    
   111   56  123 1    
   112   56  124 1    
   113   57   58 2    
   114   57   59 am   BACKBONE|DICT|INTERRES
   115   59   60 1    
   116   59  125 1    
   117   60   61 1    
   118   60   62 1    
   119   60  126 1    
   120   61  127 1    
   121   61  128 1    
   122   61  129 1    
   123   62   63 2    
   124   62   64 am   BACKBONE|DICT|INTERRES
   125   64   65 1    
   126   64  130 1    
   127   65   66 1    
   128   65   69 1    
   129   65  131 1    
   130   66   67 am   BACKBONE|DICT|INTERRES
   131   66   68 2    
   132   67  132 1    
   133   67  133 1    
   134   69   70 1    
   135   69  134 1    
   136   69  135 1    
   137   70   71 1    
   138   71  136 1    
   139   71  137 1    
@<TRIPOS>SUBSTRUCTURE
     1 UNK         1 GROUP             0       ****    0 ROOT    
