@<TRIPOS>MOLECULE
3R136
137   139    1
SMALL
USER_CHARGES


@<TRIPOS>ATOM
      1 CA         26.3578   17.1222    0.8373 C.3       0 UNK        -0.1979 
      2 C          26.3455   18.6354    0.9993 C.2       0 UNK         0.4864 
      3 O          25.2694   19.2229    1.1136 O.2       0 UNK        -0.5359 
      4 N          27.5341   19.2570    1.0117 N.am      1 UNK        -0.4318 
      5 CA         27.7737   20.7001    1.1325 C.3       1 UNK         0.0824 
      6 C6         27.3586   21.2751    2.5135 C.3       12 UNK        -0.0944 
      7 S7         28.0727   22.9288    2.8111 S.3       12 UNK        -0.2672 
      8 C8         29.4676   22.5433    3.9098 C.3       12 UNK         0.0333 
      9 C9         30.1849   23.8238    4.3012 C.ar      12 UNK        -0.0807 
     10 C10        31.4193   24.1566    3.7352 C.ar      12 UNK        -0.0894 
     11 C11        32.0433   25.3635    4.0664 C.ar      12 UNK        -0.0804 
     12 C12        31.4282   26.2378    4.9676 C.ar      12 UNK        -0.0824 
     13 C13        30.1818   25.9253    5.5159 C.ar      12 UNK        -0.0762 
     14 C14        29.5804   24.7042    5.2015 C.ar      12 UNK        -0.0782 
     15 C15        29.4520   26.9201    6.4054 C.3       12 UNK         0.0230 
     16 S16        27.9023   27.4829    5.6245 S.3       12 UNK        -0.2608 
     17 C17        28.4818   28.7869    4.4857 C.3       12 UNK        -0.0989 
     18 CA         29.1120   28.2850    3.1522 C.3       5 UNK         0.0716 
     19 N          28.3337   27.2606    2.4440 N.am      5 UNK        -0.4135 
     20 C          27.1064   27.3931    1.9236 C.2       4 UNK         0.5031 
     21 O          26.4228   28.4128    2.0301 O.2       4 UNK        -0.5229 
     22 CA         26.5784   26.1867    1.1125 C.3       4 UNK         0.0329 
     23 CB         25.3789   26.5557    0.2151 C.3       4 UNK        -0.2001 
     24 N          27.6082   25.5027    0.3123 N.am      4 UNK        -0.4303 
     25 C          28.4473   26.0605   -0.5770 C.2       3 UNK         0.5044 
     26 O          28.4898   27.2660   -0.8201 O.2       3 UNK        -0.5152 
     27 CA         29.4370   25.1287   -1.2966 C.3       3 UNK         0.0319 
     28 CB         30.7421   25.0259   -0.4904 C.3       3 UNK        -0.2001 
     29 N          28.9110   23.7845   -1.5407 N.am      3 UNK        -0.4354 
     30 C          27.9230   23.4854   -2.3994 C.2       2 UNK         0.4964 
     31 O          27.3642   24.3157   -3.1163 O.2       2 UNK        -0.5047 
     32 CA         27.4810   22.0090   -2.4741 C.3       2 UNK         0.0288 
     33 CB         28.1380   21.3094   -3.6754 C.3       2 UNK        -0.2113 
     34 N          27.7767   21.2509   -1.2526 N.am      2 UNK        -0.4145 
     35 C          27.1905   21.4787   -0.0684 C.2       1 UNK         0.5006 
     36 O          26.2635   22.2775    0.0845 O.2       1 UNK        -0.5103 
     37 C          29.5596   29.4643    2.2575 C.2       5 UNK         0.5055 
     38 O          29.9586   30.4954    2.7990 O.2       5 UNK        -0.5220 
     39 N          29.5187   29.3192    0.9226 N.am      6 UNK        -0.4450 
     40 CA         29.9524   30.3020   -0.0775 C.3       6 UNK         0.0367 
     41 CB         31.4962   30.3957   -0.0915 C.3       6 UNK        -0.1929 
     42 C          29.2394   31.6597    0.0983 C.2       6 UNK         0.5070 
     43 O          28.0360   31.7441   -0.1469 O.2       6 UNK        -0.5237 
     44 N          29.9777   32.6830    0.5473 N.am      7 UNK        -0.4739 
     45 CA         29.4858   34.0302    0.8528 C.3       7 UNK         0.0276 
     46 CB         30.5464   35.0510    0.3986 C.3       7 UNK        -0.1927 
     47 C          29.1206   34.2008    2.3442 C.2       7 UNK         0.5013 
     48 O          29.2115   35.3151    2.8614 O.2       7 UNK        -0.5193 
     49 N          28.7302   33.1001    3.0046 N.am      8 UNK        -0.4253 
     50 CA         28.4576   32.9470    4.4393 C.3       8 UNK         0.0242 
     51 CB         27.3172   33.8735    4.9151 C.3       8 UNK        -0.2000 
     52 C          29.7503   33.0791    5.2639 C.2       8 UNK         0.4948 
     53 O          29.8377   33.9196    6.1618 O.2       8 UNK        -0.5275 
     54 N          30.7392   32.2474    4.9201 N.am      9 UNK        -0.4246 
     55 CA         32.0692   32.2005    5.5210 C.3       9 UNK         0.0261 
     56 CB         32.9958   33.1638    4.7527 C.3       9 UNK        -0.1959 
     57 C          32.5955   30.7587    5.4806 C.2       9 UNK         0.5033 
     58 O          31.9339   29.8698    4.9416 O.2       9 UNK        -0.5390 
     59 N          33.8104   30.5421    5.9991 N.am      10 UNK        -0.4215 
     60 CA         34.5246   29.2577    5.9723 C.3       10 UNK         0.0240 
     61 CB         35.5749   29.2501    7.0996 C.3       10 UNK        -0.1982 
     62 C          35.1370   28.9227    4.5908 C.2       10 UNK         0.4970 
     63 O          36.2469   28.3920    4.5290 O.2       10 UNK        -0.4916 
     64 N          34.4072   29.2402    3.5129 N.am      11 UNK        -0.4279 
     65 CA         34.7577   29.0192    2.0977 C.3       11 UNK         0.1003 
     66 C          36.0457   29.7524    1.6095 C.2       11 UNK         0.5709 
     67 N          36.5004   30.8018    2.2843 N.am      11 UNK        -0.7358 
     68 O          36.6244   29.3943    0.5861 O.2       11 UNK        -0.4999 
     69 C69        34.7161   27.5161    1.6988 C.3       12 UNK        -0.0954 
     70 S70        33.0626   26.7934    1.9606 S.3       12 UNK        -0.2268 
     71 C71        33.3602   25.7527    3.4204 C.3       12 UNK         0.0203 
     72 H72        25.8073   16.8365   -0.0587 H         1 UNK         0.0888 
     73 H73        27.3702   16.7276    0.7528 H         1 UNK         0.0888 
     74 H74        25.8810   16.6495    1.6955 H         1 UNK         0.0888 
     75 H75        28.3683   18.6951    0.9094 H         1 UNK         0.3017 
     76 H76        28.8575   20.8096    1.0629 H         1 UNK         0.0873 
     77 H77        26.2725   21.3404    2.6010 H         1 UNK         0.0745 
     78 H78        27.6802   20.6035    3.3110 H         1 UNK         0.0745 
     79 H79        30.1477   21.8524    3.4092 H         1 UNK         0.0705 
     80 H80        29.1033   22.0369    4.8051 H         1 UNK         0.0705 
     81 H81        31.8839   23.4896    3.0217 H         1 UNK         0.1334 
     82 H82        31.8945   27.1865    5.1969 H         1 UNK         0.1417 
     83 H83        28.6111   24.4626    5.6170 H         1 UNK         0.1562 
     84 H84        30.0818   27.7795    6.6421 H         1 UNK         0.0748 
     85 H85        29.2151   26.4386    7.3551 H         1 UNK         0.0748 
     86 H86        29.1928   29.4114    5.0301 H         1 UNK         0.0940 
     87 H87        27.6269   29.4301    4.2709 H         1 UNK         0.0940 
     88 H88        30.0495   27.7959    3.4020 H         1 UNK         0.0703 
     89 H89        28.8032   26.3753    2.3188 H         1 UNK         0.3081 
     90 H90        26.2300   25.4591    1.8473 H         1 UNK         0.0719 
     91 H91        25.6478   27.3111   -0.5242 H         1 UNK         0.0809 
     92 H92        25.0018   25.6832   -0.3187 H         1 UNK         0.0809 
     93 H93        24.5532   26.9548    0.8056 H         1 UNK         0.0809 
     94 H94        27.6576   24.5009    0.4426 H         1 UNK         0.2990 
     95 H95        29.6683   25.5790   -2.2644 H         1 UNK         0.0690 
     96 H96        31.4888   24.4290   -1.0142 H         1 UNK         0.0788 
     97 H97        30.5819   24.5791    0.4922 H         1 UNK         0.0788 
     98 H98        31.1765   26.0138   -0.3308 H         1 UNK         0.0788 
     99 H99        29.3305   23.0321   -1.0157 H         1 UNK         0.2993 
    100 H100       26.3987   22.0024   -2.6224 H         1 UNK         0.0949 
    101 H101       29.2239   21.2730   -3.5787 H         1 UNK         0.0767 
    102 H102       27.7749   20.2875   -3.7870 H         1 UNK         0.0767 
    103 H103       27.9111   21.8347   -4.6044 H         1 UNK         0.0767 
    104 H104       28.5089   20.5575   -1.3128 H         1 UNK         0.3013 
    105 H105       29.1128   28.4733    0.5307 H         1 UNK         0.3121 
    106 H106       29.6363   29.9149   -1.0474 H         1 UNK         0.0774 
    107 H107       31.8428   31.0890   -0.8591 H         1 UNK         0.0815 
    108 H108       31.9009   30.7258    0.8656 H         1 UNK         0.0815 
    109 H109       31.9409   29.4255   -0.3146 H         1 UNK         0.0815 
    110 H110       30.9453   32.5004    0.7724 H         1 UNK         0.2987 
    111 H111       28.5734   34.2226    0.2840 H         1 UNK         0.0949 
    112 H112       30.7918   34.9256   -0.6562 H         1 UNK         0.0806 
    113 H113       30.1882   36.0738    0.5233 H         1 UNK         0.0806 
    114 H114       31.4691   34.9556    0.9724 H         1 UNK         0.0806 
    115 H115       28.7928   32.2256    2.4959 H         1 UNK         0.3010 
    116 H116       28.1140   31.9205    4.5737 H         1 UNK         0.0829 
    117 H117       26.4208   33.7424    4.3092 H         1 UNK         0.0813 
    118 H118       27.0464   33.6519    5.9480 H         1 UNK         0.0813 
    119 H119       27.5982   34.9261    4.8767 H         1 UNK         0.0813 
    120 H120       30.5677   31.5374    4.2059 H         1 UNK         0.3038 
    121 H121       32.0098   32.5020    6.5688 H         1 UNK         0.0769 
    122 H122       33.9892   33.2109    5.1996 H         1 UNK         0.0811 
    123 H123       32.5986   34.1791    4.7557 H         1 UNK         0.0811 
    124 H124       33.1164   32.8592    3.7122 H         1 UNK         0.0811 
    125 H125       34.3084   31.3217    6.4048 H         1 UNK         0.3204 
    126 H126       33.8074   28.4640    6.1913 H         1 UNK         0.0748 
    127 H127       36.0674   28.2793    7.1725 H         1 UNK         0.0771 
    128 H128       36.3506   29.9985    6.9330 H         1 UNK         0.0771 
    129 H129       35.1181   29.4485    8.0694 H         1 UNK         0.0771 
    130 H130       33.4795   29.6127    3.6833 H         1 UNK         0.2980 
    131 H131       33.9623   29.5103    1.5375 H         1 UNK         0.0545 
    132 H132       37.3262   31.2777    1.9571 H         1 UNK         0.3459 
    133 H133       36.0359   31.1119    3.1217 H         1 UNK         0.3459 
    134 H134       35.4708   26.9463    2.2430 H         1 UNK         0.0616 
    135 H135       34.9471   27.3915    0.6396 H         1 UNK         0.0616 
    136 H136       33.9239   24.8666    3.1247 H         1 UNK         0.0634 
    137 H137       33.9774   26.2869    4.1427 H         1 UNK         0.0634 
@<TRIPOS>BOND
     1    1    2 1    
     2    1   72 1    
     3    1   73 1    
     4    1   74 1    
     5    2    3 2    
     6    2    4 am   BACKBONE|DICT|INTERRES
     7    4    5 1    
     8    4   75 1    
     9    5    6 1    
    10    5   35 1    
    11    5   76 1    
    12    6    7 1    
    13    6   77 1    
    14    6   78 1    
    15    7    8 1    
    16    8    9 1    
    17    8   79 1    
    18    8   80 1    
    19    9   10 ar   
    20    9   14 ar   
    21   10   11 ar   
    22   10   81 1    
    23   11   12 ar   
    24   11   71 1    
    25   12   13 ar   
    26   12   82 1    
    27   13   14 ar   
    28   13   15 1    
    29   14   83 1    
    30   15   16 1    
    31   15   84 1    
    32   15   85 1    
    33   16   17 1    
    34   17   18 1    
    35   17   86 1    
    36   17   87 1    
    37   18   19 1    
    38   18   37 1    
    39   18   88 1    
    40   19   20 am   BACKBONE|DICT|INTERRES
    41   19   89 1    
    42   20   21 2    
    43   20   22 1    
    44   22   23 1    
    45   22   24 1    
    46   22   90 1    
    47   23   91 1    
    48   23   92 1    
    49   23   93 1    
    50   24   25 am   BACKBONE|DICT|INTERRES
    51   24   94 1    
    52   25   26 2    
    53   25   27 1    
    54   27   28 1    
    55   27   29 1    
    56   27   95 1    
    57   28   96 1    
    58   28   97 1    
    59   28   98 1    
    60   29   30 am   BACKBONE|DICT|INTERRES
    61   29   99 1    
    62   30   31 2    
    63   30   32 1    
    64   32   33 1    
    65   32   34 1    
    66   32  100 1    
    67   33  101 1    
    68   33  102 1    
    69   33  103 1    
    70   34   35 am   BACKBONE|DICT|INTERRES
    71   34  104 1    
    72   35   36 2    
    73   37   38 2    
    74   37   39 am   BACKBONE|DICT|INTERRES
    75   39   40 1    
    76   39  105 1    
    77   40   41 1    
    78   40   42 1    
    79   40  106 1    
    80   41  107 1    
    81   41  108 1    
    82   41  109 1    
    83   42   43 2    
    84   42   44 am   BACKBONE|DICT|INTERRES
    85   44   45 1    
    86   44  110 1    
    87   45   46 1    
    88   45   47 1    
    89   45  111 1    
    90   46  112 1    
    91   46  113 1    
    92   46  114 1    
    93   47   48 2    
    94   47   49 am   BACKBONE|DICT|INTERRES
    95   49   50 1    
    96   49  115 1    
    97   50   51 1    
    98   50   52 1    
    99   50  116 1    
   100   51  117 1    
   101   51  118 1    
   102   51  119 1    
   103   52   53 2    
   104   52   54 am   BACKBONE|DICT|INTERRES
   105   54   55 1    
   106   54  120 1    
   107   55   56 1    
   108   55   57 1    
   109   55  121 1    
   110   56  122 1    
   111   56  123 1    
   112   56  124 1    
   113   57   58 2    
   114   57   59 am   BACKBONE|DICT|INTERRES
   115   59   60 1    
   116   59  125 1    
   117   60   61 1    
   118   60   62 1    
   119   60  126 1    
   120   61  127 1    
   121   61  128 1    
   122   61  129 1    
   123   62   63 2    
   124   62   64 am   BACKBONE|DICT|INTERRES
   125   64   65 1    
   126   64  130 1    
   127   65   66 1    
   128   65   69 1    
   129   65  131 1    
   130   66   67 am   BACKBONE|DICT|INTERRES
   131   66   68 2    
   132   67  132 1    
   133   67  133 1    
   134   69   70 1    
   135   69  134 1    
   136   69  135 1    
   137   70   71 1    
   138   71  136 1    
   139   71  137 1    
@<TRIPOS>SUBSTRUCTURE
     1 UNK         1 GROUP             0       ****    0 ROOT    
