@<TRIPOS>MOLECULE
3R136
137   139    1
SMALL
USER_CHARGES


@<TRIPOS>ATOM
      1 CA         27.1016   22.7526    0.6833 C.3       0 UNK        -0.1979 
      2 C          27.7784   23.1230   -0.6275 C.2       0 UNK         0.4864 
      3 O          27.2708   22.7788   -1.6952 O.2       0 UNK        -0.5359 
      4 N          28.9190   23.8228   -0.5560 N.am      1 UNK        -0.4318 
      5 CA         29.6948   24.2774   -1.7199 C.3       1 UNK         0.0824 
      6 C6         31.1745   24.5469   -1.3527 C.3       12 UNK        -0.0944 
      7 S7         32.0209   23.0105   -0.8558 S.3       12 UNK        -0.2672 
      8 C8         33.3846   23.6497    0.1672 C.3       12 UNK         0.0333 
      9 C9         32.9071   24.2119    1.4998 C.ar      12 UNK        -0.0807 
     10 C10        33.1922   25.5339    1.8491 C.ar      12 UNK        -0.0894 
     11 C11        32.7981   26.0426    3.0901 C.ar      12 UNK        -0.0804 
     12 C12        32.0957   25.2238    3.9807 C.ar      12 UNK        -0.0824 
     13 C13        31.7902   23.9015    3.6372 C.ar      12 UNK        -0.0762 
     14 C14        32.2136   23.4005    2.4017 C.ar      12 UNK        -0.0782 
     15 C15        31.0426   22.9912    4.6054 C.3       12 UNK         0.0230 
     16 S16        29.5117   22.3225    3.8710 S.3       12 UNK        -0.2608 
     17 C17        28.2118   23.4006    4.5594 C.3       12 UNK        -0.0989 
     18 CA         28.1736   24.8175    3.9126 C.3       5 UNK         0.0716 
     19 N          26.8084   25.2051    3.5282 N.am      5 UNK        -0.4135 
     20 C          26.4972   26.0925    2.5748 C.2       4 UNK         0.5031 
     21 O          27.3377   26.6437    1.8532 O.2       4 UNK        -0.5229 
     22 CA         25.0205   26.4838    2.4535 C.3       4 UNK         0.0329 
     23 CB         24.5795   27.3558    3.6449 C.3       4 UNK        -0.2001 
     24 N          24.8641   27.2289    1.2120 N.am      4 UNK        -0.4303 
     25 C          23.7368   27.4085    0.5167 C.2       3 UNK         0.5044 
     26 O          22.6328   27.0039    0.8833 O.2       3 UNK        -0.5152 
     27 CA         23.8587   28.1676   -0.8211 C.3       3 UNK         0.0319 
     28 CB         23.3942   29.6236   -0.6519 C.3       3 UNK        -0.2001 
     29 N          25.2117   28.1626   -1.3945 N.am      3 UNK        -0.4354 
     30 C          25.8602   27.0717   -1.8269 C.2       2 UNK         0.4964 
     31 O          25.3660   25.9431   -1.8198 O.2       2 UNK        -0.5047 
     32 CA         27.3018   27.2533   -2.3276 C.3       2 UNK         0.0288 
     33 CB         27.9383   28.6144   -1.9787 C.3       2 UNK        -0.2113 
     34 N          28.1113   26.1719   -1.7719 N.am      2 UNK        -0.4145 
     35 C          29.0634   25.4976   -2.4282 C.2       1 UNK         0.5006 
     36 O          29.4466   25.7950   -3.5613 O.2       1 UNK        -0.5103 
     37 C          28.8184   25.9214    4.7866 C.2       5 UNK         0.5055 
     38 O          29.2090   25.6767    5.9289 O.2       5 UNK        -0.5220 
     39 N          28.8885   27.1331    4.2294 N.am      6 UNK        -0.4450 
     40 CA         29.4210   28.3469    4.8396 C.3       6 UNK         0.0367 
     41 CB         28.5518   28.8269    6.0190 C.3       6 UNK        -0.1929 
     42 C          29.5184   29.4322    3.7680 C.2       6 UNK         0.5070 
     43 O          30.5860   30.0108    3.5857 O.2       6 UNK        -0.5237 
     44 N          28.4136   29.6573    3.0411 N.am      7 UNK        -0.4739 
     45 CA         28.2118   30.7408    2.0668 C.3       7 UNK         0.0276 
     46 CB         26.8118   30.5841    1.4479 C.3       7 UNK        -0.1927 
     47 C          29.2758   30.8803    0.9585 C.2       7 UNK         0.5013 
     48 O          29.3868   31.9558    0.3695 O.2       7 UNK        -0.5193 
     49 N          30.0308   29.8062    0.6953 N.am      8 UNK        -0.4253 
     50 CA         31.1284   29.7679   -0.2675 C.3       8 UNK         0.0242 
     51 CB         31.5413   28.3055   -0.5032 C.3       8 UNK        -0.2000 
     52 C          32.3485   30.6175    0.1372 C.2       8 UNK         0.4948 
     53 O          32.9573   31.2222   -0.7470 O.2       8 UNK        -0.5275 
     54 N          32.7058   30.6382    1.4328 N.am      9 UNK        -0.4246 
     55 CA         33.9435   31.2694    1.9252 C.3       9 UNK         0.0261 
     56 CB         35.1804   30.4679    1.4525 C.3       9 UNK        -0.1959 
     57 C          33.9777   31.5026    3.4503 C.2       9 UNK         0.5033 
     58 O          35.0658   31.6767    4.0036 O.2       9 UNK        -0.5390 
     59 N          32.8172   31.4865    4.1204 N.am      10 UNK        -0.4215 
     60 CA         32.5892   31.5501    5.5717 C.3       10 UNK         0.0240 
     61 CB         33.1720   32.8258    6.2140 C.3       10 UNK        -0.1982 
     62 C          33.0398   30.2715    6.2971 C.2       10 UNK         0.4970 
     63 O          32.2084   29.6075    6.9158 O.2       10 UNK        -0.4916 
     64 N          34.3327   29.9452    6.1832 N.am      11 UNK        -0.4279 
     65 CA         34.9856   28.7261    6.6950 C.3       11 UNK         0.1003 
     66 C          34.9657   28.5635    8.2465 C.2       11 UNK         0.5709 
     67 N          34.7633   29.6262    9.0166 N.am      11 UNK        -0.7358 
     68 O          35.1722   27.4693    8.7669 O.2       11 UNK        -0.4999 
     69 C69        34.5334   27.4418    5.9387 C.3       12 UNK        -0.0954 
     70 S70        34.8371   27.5716    4.1431 S.3       12 UNK        -0.2268 
     71 C71        33.1558   27.4732    3.4593 C.3       12 UNK         0.0203 
     72 H72        27.6973   23.0494    1.5443 H         1 UNK         0.0888 
     73 H73        26.1300   23.2409    0.7552 H         1 UNK         0.0888 
     74 H74        26.9484   21.6750    0.7364 H         1 UNK         0.0888 
     75 H75        29.3145   24.0471    0.3457 H         1 UNK         0.3017 
     76 H76        29.6837   23.4737   -2.4599 H         1 UNK         0.0873 
     77 H77        31.2415   25.2819   -0.5491 H         1 UNK         0.0745 
     78 H78        31.7218   24.9635   -2.2008 H         1 UNK         0.0745 
     79 H79        33.9347   24.4000   -0.4031 H         1 UNK         0.0705 
     80 H80        34.0860   22.8374    0.3620 H         1 UNK         0.0705 
     81 H81        33.7438   26.1643    1.1649 H         1 UNK         0.1334 
     82 H82        31.7983   25.6140    4.9446 H         1 UNK         0.1417 
     83 H83        31.9980   22.3736    2.1380 H         1 UNK         0.1562 
     84 H84        30.8181   23.5032    5.5421 H         1 UNK         0.0748 
     85 H85        31.6943   22.1562    4.8662 H         1 UNK         0.0748 
     86 H86        28.2870   23.4165    5.6481 H         1 UNK         0.0940 
     87 H87        27.2746   22.8768    4.3643 H         1 UNK         0.0940 
     88 H88        28.7658   24.7839    2.9951 H         1 UNK         0.0703 
     89 H89        26.0657   24.8367    4.1052 H         1 UNK         0.3081 
     90 H90        24.4202   25.5727    2.4083 H         1 UNK         0.0719 
     91 H91        25.1657   28.2731    3.7126 H         1 UNK         0.0809 
     92 H92        23.5302   27.6395    3.5611 H         1 UNK         0.0809 
     93 H93        24.6908   26.8252    4.5912 H         1 UNK         0.0809 
     94 H94        25.7420   27.5393    0.8162 H         1 UNK         0.2990 
     95 H95        23.1931   27.6758   -1.5335 H         1 UNK         0.0690 
     96 H96        23.3932   30.1544   -1.6042 H         1 UNK         0.0788 
     97 H97        24.0321   30.1740    0.0407 H         1 UNK         0.0788 
     98 H98        22.3769   29.6655   -0.2599 H         1 UNK         0.0788 
     99 H99        25.6829   29.0538   -1.4508 H         1 UNK         0.2993 
    100 H100       27.2579   27.1585   -3.4148 H         1 UNK         0.0949 
    101 H101       27.9907   28.7657   -0.9015 H         1 UNK         0.0767 
    102 H102       28.9531   28.6795   -2.3708 H         1 UNK         0.0767 
    103 H103       27.3831   29.4459   -2.4142 H         1 UNK         0.0767 
    104 H104       27.8189   25.8271   -0.8677 H         1 UNK         0.3013 
    105 H105       28.5578   27.2171    3.2714 H         1 UNK         0.3121 
    106 H106       30.4253   28.1397    5.2119 H         1 UNK         0.0774 
    107 H107       28.9199   29.7768    6.4096 H         1 UNK         0.0815 
    108 H108       27.5107   28.9712    5.7286 H         1 UNK         0.0815 
    109 H109       28.5718   28.1174    6.8458 H         1 UNK         0.0815 
    110 H110       27.5889   29.1216    3.2661 H         1 UNK         0.2987 
    111 H111       28.2324   31.6775    2.6277 H         1 UNK         0.0949 
    112 H112       26.6167   31.3628    0.7090 H         1 UNK         0.0806 
    113 H113       26.6998   29.6227    0.9480 H         1 UNK         0.0806 
    114 H114       26.0312   30.6597    2.2052 H         1 UNK         0.0806 
    115 H115       29.8648   28.9733    1.2395 H         1 UNK         0.3010 
    116 H116       30.7535   30.1686   -1.2120 H         1 UNK         0.0829 
    117 H117       30.7122   27.7201   -0.8990 H         1 UNK         0.0813 
    118 H118       32.3556   28.2398   -1.2263 H         1 UNK         0.0813 
    119 H119       31.8803   27.8266    0.4151 H         1 UNK         0.0813 
    120 H120       32.1234   30.1559    2.1078 H         1 UNK         0.3038 
    121 H121       34.0025   32.2667    1.4847 H         1 UNK         0.0769 
    122 H122       36.1097   30.9300    1.7875 H         1 UNK         0.0811 
    123 H123       35.2401   30.4118    0.3661 H         1 UNK         0.0811 
    124 H124       35.1671   29.4484    1.8362 H         1 UNK         0.0811 
    125 H125       31.9713   31.2474    3.6100 H         1 UNK         0.3204 
    126 H126       31.5055   31.6045    5.6884 H         1 UNK         0.0748 
    127 H127       32.8827   32.8957    7.2633 H         1 UNK         0.0771 
    128 H128       34.2612   32.8518    6.1792 H         1 UNK         0.0771 
    129 H129       32.8012   33.7217    5.7161 H         1 UNK         0.0771 
    130 H130       34.9091   30.5504    5.6060 H         1 UNK         0.2980 
    131 H131       36.0428   28.8645    6.4667 H         1 UNK         0.0545 
    132 H132       34.7631   29.5174   10.0184 H         1 UNK         0.3459 
    133 H133       34.6039   30.5313    8.6049 H         1 UNK         0.3459 
    134 H134       33.4819   27.2280    6.1349 H         1 UNK         0.0616 
    135 H135       35.0891   26.5716    6.2915 H         1 UNK         0.0616 
    136 H136       33.1093   28.0987    2.5685 H         1 UNK         0.0634 
    137 H137       32.4369   27.8943    4.1604 H         1 UNK         0.0634 
@<TRIPOS>BOND
     1    1    2 1    
     2    1   72 1    
     3    1   73 1    
     4    1   74 1    
     5    2    3 2    
     6    2    4 am   BACKBONE|DICT|INTERRES
     7    4    5 1    
     8    4   75 1    
     9    5    6 1    
    10    5   35 1    
    11    5   76 1    
    12    6    7 1    
    13    6   77 1    
    14    6   78 1    
    15    7    8 1    
    16    8    9 1    
    17    8   79 1    
    18    8   80 1    
    19    9   10 ar   
    20    9   14 ar   
    21   10   11 ar   
    22   10   81 1    
    23   11   12 ar   
    24   11   71 1    
    25   12   13 ar   
    26   12   82 1    
    27   13   14 ar   
    28   13   15 1    
    29   14   83 1    
    30   15   16 1    
    31   15   84 1    
    32   15   85 1    
    33   16   17 1    
    34   17   18 1    
    35   17   86 1    
    36   17   87 1    
    37   18   19 1    
    38   18   37 1    
    39   18   88 1    
    40   19   20 am   BACKBONE|DICT|INTERRES
    41   19   89 1    
    42   20   21 2    
    43   20   22 1    
    44   22   23 1    
    45   22   24 1    
    46   22   90 1    
    47   23   91 1    
    48   23   92 1    
    49   23   93 1    
    50   24   25 am   BACKBONE|DICT|INTERRES
    51   24   94 1    
    52   25   26 2    
    53   25   27 1    
    54   27   28 1    
    55   27   29 1    
    56   27   95 1    
    57   28   96 1    
    58   28   97 1    
    59   28   98 1    
    60   29   30 am   BACKBONE|DICT|INTERRES
    61   29   99 1    
    62   30   31 2    
    63   30   32 1    
    64   32   33 1    
    65   32   34 1    
    66   32  100 1    
    67   33  101 1    
    68   33  102 1    
    69   33  103 1    
    70   34   35 am   BACKBONE|DICT|INTERRES
    71   34  104 1    
    72   35   36 2    
    73   37   38 2    
    74   37   39 am   BACKBONE|DICT|INTERRES
    75   39   40 1    
    76   39  105 1    
    77   40   41 1    
    78   40   42 1    
    79   40  106 1    
    80   41  107 1    
    81   41  108 1    
    82   41  109 1    
    83   42   43 2    
    84   42   44 am   BACKBONE|DICT|INTERRES
    85   44   45 1    
    86   44  110 1    
    87   45   46 1    
    88   45   47 1    
    89   45  111 1    
    90   46  112 1    
    91   46  113 1    
    92   46  114 1    
    93   47   48 2    
    94   47   49 am   BACKBONE|DICT|INTERRES
    95   49   50 1    
    96   49  115 1    
    97   50   51 1    
    98   50   52 1    
    99   50  116 1    
   100   51  117 1    
   101   51  118 1    
   102   51  119 1    
   103   52   53 2    
   104   52   54 am   BACKBONE|DICT|INTERRES
   105   54   55 1    
   106   54  120 1    
   107   55   56 1    
   108   55   57 1    
   109   55  121 1    
   110   56  122 1    
   111   56  123 1    
   112   56  124 1    
   113   57   58 2    
   114   57   59 am   BACKBONE|DICT|INTERRES
   115   59   60 1    
   116   59  125 1    
   117   60   61 1    
   118   60   62 1    
   119   60  126 1    
   120   61  127 1    
   121   61  128 1    
   122   61  129 1    
   123   62   63 2    
   124   62   64 am   BACKBONE|DICT|INTERRES
   125   64   65 1    
   126   64  130 1    
   127   65   66 1    
   128   65   69 1    
   129   65  131 1    
   130   66   67 am   BACKBONE|DICT|INTERRES
   131   66   68 2    
   132   67  132 1    
   133   67  133 1    
   134   69   70 1    
   135   69  134 1    
   136   69  135 1    
   137   70   71 1    
   138   71  136 1    
   139   71  137 1    
@<TRIPOS>SUBSTRUCTURE
     1 UNK         1 GROUP             0       ****    0 ROOT    
