@<TRIPOS>MOLECULE
3R136
137   139    1
SMALL
USER_CHARGES


@<TRIPOS>ATOM
      1 CA         25.0779   27.1872    1.9212 C.3       0 UNK        -0.1979 
      2 C          25.3758   25.7209    2.1957 C.2       0 UNK         0.4864 
      3 O          24.4529   24.9356    2.4198 O.2       0 UNK        -0.5359 
      4 N          26.6557   25.3328    2.1679 N.am      1 UNK        -0.4318 
      5 CA         27.1528   23.9828    2.4473 C.3       1 UNK         0.0824 
      6 C6         28.5778   24.0740    3.0458 C.3       12 UNK        -0.0944 
      7 S7         29.0785   22.6375    4.0523 S.3       12 UNK        -0.2672 
      8 C8         30.4323   21.9062    3.0712 C.3       12 UNK         0.0333 
      9 C9         31.5088   22.9153    2.6852 C.ar      12 UNK        -0.0807 
     10 C10        32.3394   23.4883    3.6546 C.ar      12 UNK        -0.0894 
     11 C11        33.3214   24.4220    3.2996 C.ar      12 UNK        -0.0804 
     12 C12        33.4726   24.7611    1.9478 C.ar      12 UNK        -0.0824 
     13 C13        32.6390   24.2090    0.9734 C.ar      12 UNK        -0.0762 
     14 C14        31.6647   23.2815    1.3458 C.ar      12 UNK        -0.0782 
     15 C15        32.7877   24.6147   -0.4841 C.3       12 UNK         0.0230 
     16 S16        31.4292   25.6981   -1.0218 S.3       12 UNK        -0.2608 
     17 C17        31.8161   27.2694   -0.1692 C.3       12 UNK        -0.0989 
     18 CA         30.5755   28.1234    0.2044 C.3       5 UNK         0.0716 
     19 N          29.6374   28.2211   -0.9123 N.am      5 UNK        -0.4135 
     20 C          28.7197   29.1787   -1.0793 C.2       4 UNK         0.5031 
     21 O          28.6418   30.1781   -0.3641 O.2       4 UNK        -0.5229 
     22 CA         27.7338   29.0105   -2.2539 C.3       4 UNK         0.0329 
     23 CB         28.1561   29.8998   -3.4349 C.3       4 UNK        -0.2001 
     24 N          27.5864   27.6251   -2.7232 N.am      4 UNK        -0.4303 
     25 C          26.9898   26.6494   -2.0243 C.2       3 UNK         0.5044 
     26 O          26.4671   26.8277   -0.9216 O.2       3 UNK        -0.5152 
     27 CA         26.9709   25.2449   -2.6522 C.3       3 UNK         0.0319 
     28 CB         28.3939   24.7440   -2.9797 C.3       3 UNK        -0.2001 
     29 N          26.3305   24.3503   -1.6929 N.am      3 UNK        -0.4354 
     30 C          25.9957   23.0646   -1.8486 C.2       2 UNK         0.4964 
     31 O          26.1101   22.4538   -2.9127 O.2       2 UNK        -0.5047 
     32 CA         25.4253   22.3436   -0.6055 C.3       2 UNK         0.0288 
     33 CB         25.7396   20.8320   -0.5977 C.3       2 UNK        -0.2113 
     34 N          25.8151   22.9683    0.6692 N.am      2 UNK        -0.4145 
     35 C          27.0532   23.1189    1.1699 C.2       1 UNK         0.5006 
     36 O          28.0677   22.6639    0.6386 O.2       1 UNK        -0.5103 
     37 C          29.8575   27.6239    1.4749 C.2       5 UNK         0.5055 
     38 O          28.9411   26.8055    1.3793 O.2       5 UNK        -0.5220 
     39 N          30.2803   28.1339    2.6381 N.am      6 UNK        -0.4450 
     40 CA         29.7698   27.8207    3.9721 C.3       6 UNK         0.0367 
     41 CB         28.2881   28.2289    4.1253 C.3       6 UNK        -0.1929 
     42 C          30.6187   28.5794    4.9947 C.2       6 UNK         0.5070 
     43 O          31.3360   29.5119    4.6220 O.2       6 UNK        -0.5237 
     44 N          30.4874   28.2132    6.2757 N.am      7 UNK        -0.4739 
     45 CA         31.1787   28.8469    7.4081 C.3       7 UNK         0.0276 
     46 CB         30.8428   28.0799    8.6970 C.3       7 UNK        -0.1927 
     47 C          30.8709   30.3486    7.5820 C.2       7 UNK         0.5013 
     48 O          31.7123   31.0796    8.1044 O.2       7 UNK        -0.5193 
     49 N          29.6876   30.7753    7.1222 N.am      8 UNK        -0.4253 
     50 CA         29.2333   32.1674    7.0952 C.3       8 UNK         0.0242 
     51 CB         27.7897   32.2167    7.6294 C.3       8 UNK        -0.2000 
     52 C          29.3245   32.7950    5.6881 C.2       8 UNK         0.4948 
     53 O          28.8007   33.8939    5.4963 O.2       8 UNK        -0.5275 
     54 N          29.9543   32.1053    4.7270 N.am      9 UNK        -0.4246 
     55 CA         30.1055   32.5344    3.3372 C.3       9 UNK         0.0261 
     56 CB         29.0097   31.8784    2.4722 C.3       9 UNK        -0.1959 
     57 C          31.5418   32.2400    2.8744 C.2       9 UNK         0.5033 
     58 O          32.4785   32.4742    3.6414 O.2       9 UNK        -0.5390 
     59 N          31.7126   31.7391    1.6421 N.am      10 UNK        -0.4215 
     60 CA         33.0048   31.4651    0.9970 C.3       10 UNK         0.0240 
     61 CB         32.8050   31.4230   -0.5313 C.3       10 UNK        -0.1982 
     62 C          33.7394   30.2176    1.5420 C.2       10 UNK         0.4970 
     63 O          34.1744   29.3699    0.7623 O.2       10 UNK        -0.4916 
     64 N          33.8756   30.1365    2.8663 N.am      11 UNK        -0.4279 
     65 CA         34.6707   29.1547    3.6143 C.3       11 UNK         0.1003 
     66 C          34.9743   29.6867    5.0372 C.2       11 UNK         0.5709 
     67 N          33.9963   30.2715    5.7173 N.am      11 UNK        -0.7358 
     68 O          36.1041   29.5995    5.5118 O.2       11 UNK        -0.4999 
     69 C69        34.0353   27.7366    3.6440 C.3       12 UNK        -0.0954 
     70 S70        35.2667   26.4218    3.9241 S.3       12 UNK        -0.2268 
     71 C71        34.1951   25.0197    4.4076 C.3       12 UNK         0.0203 
     72 H72        25.9764   27.7359    1.6380 H         1 UNK         0.0888 
     73 H73        24.3616   27.2772    1.1051 H         1 UNK         0.0888 
     74 H74        24.6528   27.6585    2.8067 H         1 UNK         0.0888 
     75 H75        27.3796   25.9935    1.8818 H         1 UNK         0.3017 
     76 H76        26.5043   23.5260    3.1983 H         1 UNK         0.0873 
     77 H77        29.3089   24.3041    2.2718 H         1 UNK         0.0745 
     78 H78        28.6187   24.9200    3.7313 H         1 UNK         0.0745 
     79 H79        30.8884   21.1003    3.6477 H         1 UNK         0.0705 
     80 H80        30.0052   21.4386    2.1827 H         1 UNK         0.0705 
     81 H81        32.2124   23.2101    4.6922 H         1 UNK         0.1334 
     82 H82        34.2313   25.4646    1.6378 H         1 UNK         0.1417 
     83 H83        31.0126   22.8604    0.5916 H         1 UNK         0.1562 
     84 H84        32.7917   23.7195   -1.1076 H         1 UNK         0.0748 
     85 H85        33.7419   25.1141   -0.6601 H         1 UNK         0.0748 
     86 H86        32.4562   27.8465   -0.8384 H         1 UNK         0.0940 
     87 H87        32.4268   27.0759    0.7119 H         1 UNK         0.0940 
     88 H88        30.9295   29.1310    0.4236 H         1 UNK         0.0703 
     89 H89        29.6088   27.4137   -1.5166 H         1 UNK         0.3081 
     90 H90        26.7575   29.3523   -1.9031 H         1 UNK         0.0719 
     91 H91        29.1218   29.5986   -3.8430 H         1 UNK         0.0809 
     92 H92        27.4232   29.8647   -4.2412 H         1 UNK         0.0809 
     93 H93        28.2444   30.9425   -3.1261 H         1 UNK         0.0809 
     94 H94        27.9749   27.4094   -3.6302 H         1 UNK         0.2990 
     95 H95        26.3689   25.2843   -3.5617 H         1 UNK         0.0690 
     96 H96        28.3686   23.7952   -3.5151 H         1 UNK         0.0788 
     97 H97        28.9733   24.5890   -2.0697 H         1 UNK         0.0788 
     98 H98        28.9438   25.4428   -3.6102 H         1 UNK         0.0788 
     99 H99        26.1609   24.8001   -0.8007 H         1 UNK         0.2993 
    100 H100       24.3419   22.4524   -0.6740 H         1 UNK         0.0949 
    101 H101       25.3206   20.3441    0.2824 H         1 UNK         0.0767 
    102 H102       25.3146   20.3386   -1.4726 H         1 UNK         0.0767 
    103 H103       26.8133   20.6415   -0.6083 H         1 UNK         0.0767 
    104 H104       25.0666   23.4263    1.1822 H         1 UNK         0.3013 
    105 H105       31.0441   28.7988    2.6630 H         1 UNK         0.3121 
    106 H106       29.8944   26.7520    4.1484 H         1 UNK         0.0774 
    107 H107       28.1410   29.2952    3.9535 H         1 UNK         0.0815 
    108 H108       27.9170   28.0076    5.1265 H         1 UNK         0.0815 
    109 H109       27.6437   27.6911    3.4345 H         1 UNK         0.0815 
    110 H110       29.8747   27.4418    6.5004 H         1 UNK         0.2987 
    111 H111       32.2517   28.7539    7.2309 H         1 UNK         0.0949 
    112 H112       29.7750   28.1073    8.9176 H         1 UNK         0.0806 
    113 H113       31.1466   27.0352    8.6287 H         1 UNK         0.0806 
    114 H114       31.3635   28.5101    9.5539 H         1 UNK         0.0806 
    115 H115       29.0680   30.0919    6.7118 H         1 UNK         0.3010 
    116 H116       29.8572   32.7766    7.7525 H         1 UNK         0.0829 
    117 H117       27.7233   31.7914    8.6310 H         1 UNK         0.0813 
    118 H118       27.4277   33.2438    7.6939 H         1 UNK         0.0813 
    119 H119       27.1016   31.6682    6.9851 H         1 UNK         0.0813 
    120 H120       30.4405   31.2459    4.9639 H         1 UNK         0.3038 
    121 H121       29.9885   33.6180    3.2722 H         1 UNK         0.0769 
    122 H122       29.1372   30.7984    2.3996 H         1 UNK         0.0811 
    123 H123       29.0055   32.2831    1.4595 H         1 UNK         0.0811 
    124 H124       28.0186   32.0647    2.8862 H         1 UNK         0.0811 
    125 H125       30.8875   31.5735    1.0828 H         1 UNK         0.3204 
    126 H126       33.6619   32.3121    1.2063 H         1 UNK         0.0748 
    127 H127       33.7582   31.2983   -1.0471 H         1 UNK         0.0771 
    128 H128       32.1598   30.6019   -0.8422 H         1 UNK         0.0771 
    129 H129       32.3648   32.3503   -0.8986 H         1 UNK         0.0771 
    130 H130       33.4917   30.8979    3.4230 H         1 UNK         0.2980 
    131 H131       35.6292   29.0885    3.0954 H         1 UNK         0.0545 
    132 H132       33.0545   30.2795    5.3438 H         1 UNK         0.3459 
    133 H133       34.1805   30.6484    6.6332 H         1 UNK         0.3459 
    134 H134       33.2637   27.6663    4.4098 H         1 UNK         0.0616 
    135 H135       33.5388   27.5236    2.6993 H         1 UNK         0.0616 
    136 H136       33.5611   25.3391    5.2362 H         1 UNK         0.0634 
    137 H137       34.8361   24.2284    4.7983 H         1 UNK         0.0634 
@<TRIPOS>BOND
     1    1    2 1    
     2    1   72 1    
     3    1   73 1    
     4    1   74 1    
     5    2    3 2    
     6    2    4 am   BACKBONE|DICT|INTERRES
     7    4    5 1    
     8    4   75 1    
     9    5    6 1    
    10    5   35 1    
    11    5   76 1    
    12    6    7 1    
    13    6   77 1    
    14    6   78 1    
    15    7    8 1    
    16    8    9 1    
    17    8   79 1    
    18    8   80 1    
    19    9   10 ar   
    20    9   14 ar   
    21   10   11 ar   
    22   10   81 1    
    23   11   12 ar   
    24   11   71 1    
    25   12   13 ar   
    26   12   82 1    
    27   13   14 ar   
    28   13   15 1    
    29   14   83 1    
    30   15   16 1    
    31   15   84 1    
    32   15   85 1    
    33   16   17 1    
    34   17   18 1    
    35   17   86 1    
    36   17   87 1    
    37   18   19 1    
    38   18   37 1    
    39   18   88 1    
    40   19   20 am   BACKBONE|DICT|INTERRES
    41   19   89 1    
    42   20   21 2    
    43   20   22 1    
    44   22   23 1    
    45   22   24 1    
    46   22   90 1    
    47   23   91 1    
    48   23   92 1    
    49   23   93 1    
    50   24   25 am   BACKBONE|DICT|INTERRES
    51   24   94 1    
    52   25   26 2    
    53   25   27 1    
    54   27   28 1    
    55   27   29 1    
    56   27   95 1    
    57   28   96 1    
    58   28   97 1    
    59   28   98 1    
    60   29   30 am   BACKBONE|DICT|INTERRES
    61   29   99 1    
    62   30   31 2    
    63   30   32 1    
    64   32   33 1    
    65   32   34 1    
    66   32  100 1    
    67   33  101 1    
    68   33  102 1    
    69   33  103 1    
    70   34   35 am   BACKBONE|DICT|INTERRES
    71   34  104 1    
    72   35   36 2    
    73   37   38 2    
    74   37   39 am   BACKBONE|DICT|INTERRES
    75   39   40 1    
    76   39  105 1    
    77   40   41 1    
    78   40   42 1    
    79   40  106 1    
    80   41  107 1    
    81   41  108 1    
    82   41  109 1    
    83   42   43 2    
    84   42   44 am   BACKBONE|DICT|INTERRES
    85   44   45 1    
    86   44  110 1    
    87   45   46 1    
    88   45   47 1    
    89   45  111 1    
    90   46  112 1    
    91   46  113 1    
    92   46  114 1    
    93   47   48 2    
    94   47   49 am   BACKBONE|DICT|INTERRES
    95   49   50 1    
    96   49  115 1    
    97   50   51 1    
    98   50   52 1    
    99   50  116 1    
   100   51  117 1    
   101   51  118 1    
   102   51  119 1    
   103   52   53 2    
   104   52   54 am   BACKBONE|DICT|INTERRES
   105   54   55 1    
   106   54  120 1    
   107   55   56 1    
   108   55   57 1    
   109   55  121 1    
   110   56  122 1    
   111   56  123 1    
   112   56  124 1    
   113   57   58 2    
   114   57   59 am   BACKBONE|DICT|INTERRES
   115   59   60 1    
   116   59  125 1    
   117   60   61 1    
   118   60   62 1    
   119   60  126 1    
   120   61  127 1    
   121   61  128 1    
   122   61  129 1    
   123   62   63 2    
   124   62   64 am   BACKBONE|DICT|INTERRES
   125   64   65 1    
   126   64  130 1    
   127   65   66 1    
   128   65   69 1    
   129   65  131 1    
   130   66   67 am   BACKBONE|DICT|INTERRES
   131   66   68 2    
   132   67  132 1    
   133   67  133 1    
   134   69   70 1    
   135   69  134 1    
   136   69  135 1    
   137   70   71 1    
   138   71  136 1    
   139   71  137 1    
@<TRIPOS>SUBSTRUCTURE
     1 UNK         1 GROUP             0       ****    0 ROOT    
