@<TRIPOS>MOLECULE
3R136
137   139    1
SMALL
USER_CHARGES


@<TRIPOS>ATOM
      1 CA         25.9819   18.8519    2.9006 C.3       0 UNK        -0.1979 
      2 C          26.8163   19.2998    1.7095 C.2       0 UNK         0.4864 
      3 O          26.7483   18.6791    0.6471 O.2       0 UNK        -0.5359 
      4 N          27.6081   20.3667    1.8798 N.am      1 UNK        -0.4318 
      5 CA         28.4232   20.9769    0.8264 C.3       1 UNK         0.0824 
      6 C6         29.4876   21.9270    1.4305 C.3       12 UNK        -0.0944 
      7 S7         30.8112   22.3505    0.2451 S.3       12 UNK        -0.2672 
      8 C8         32.2689   22.4467    1.3316 C.3       12 UNK         0.0333 
      9 C9         32.2597   23.7172    2.1690 C.ar      12 UNK        -0.0807 
     10 C10        32.8809   24.8759    1.6959 C.ar      12 UNK        -0.0894 
     11 C11        32.8764   26.0475    2.4591 C.ar      12 UNK        -0.0804 
     12 C12        32.2380   26.0583    3.7042 C.ar      12 UNK        -0.0824 
     13 C13        31.6149   24.9037    4.1883 C.ar      12 UNK        -0.0762 
     14 C14        31.6390   23.7353    3.4206 C.ar      12 UNK        -0.0782 
     15 C15        30.9324   24.8947    5.5481 C.3       12 UNK         0.0230 
     16 S16        29.1273   24.7193    5.3841 S.3       12 UNK        -0.2608 
     17 C17        28.5473   26.4483    5.4709 C.3       12 UNK        -0.0989 
     18 CA         28.5314   27.1969    4.1076 C.3       5 UNK         0.0716 
     19 N          27.8914   26.4480    3.0179 N.am      5 UNK        -0.4135 
     20 C          26.5926   26.1324    2.9174 C.2       4 UNK         0.5031 
     21 O          25.7765   26.3094    3.8234 O.2       4 UNK        -0.5229 
     22 CA         26.0929   25.5451    1.5817 C.3       4 UNK         0.0329 
     23 CB         24.9109   26.3680    1.0287 C.3       4 UNK        -0.2001 
     24 N          27.0985   25.3503    0.5254 N.am      4 UNK        -0.4303 
     25 C          27.8570   26.2677   -0.0996 C.2       3 UNK         0.5044 
     26 O          27.9421   27.4440    0.2617 O.2       3 UNK        -0.5152 
     27 CA         28.6965   25.7991   -1.3065 C.3       3 UNK         0.0319 
     28 CB         30.1947   25.9808   -1.0288 C.3       3 UNK        -0.2001 
     29 N          28.4576   24.4033   -1.6794 N.am      3 UNK        -0.4354 
     30 C          27.4139   23.9625   -2.3977 C.2       2 UNK         0.4964 
     31 O          26.5672   24.7012   -2.9002 O.2       2 UNK        -0.5047 
     32 CA         27.2716   22.4355   -2.5544 C.3       2 UNK         0.0288 
     33 CB         27.8528   21.9760   -3.9014 C.3       2 UNK        -0.2113 
     34 N          27.9037   21.6736   -1.4702 N.am      2 UNK        -0.4145 
     35 C          27.5299   21.7241   -0.1834 C.2       1 UNK         0.5006 
     36 O          26.5754   22.3913    0.2241 O.2       1 UNK        -0.5103 
     37 C          27.9281   28.6199    4.2293 C.2       5 UNK         0.5055 
     38 O          27.7399   29.1144    5.3420 O.2       5 UNK        -0.5220 
     39 N          27.5930   29.2344    3.0810 N.am      6 UNK        -0.4450 
     40 CA         26.7912   30.4624    2.9701 C.3       6 UNK         0.0367 
     41 CB         26.4600   30.7020    1.4881 C.3       6 UNK        -0.1929 
     42 C          27.4085   31.7317    3.5918 C.2       6 UNK         0.5070 
     43 O          26.6864   32.7025    3.8208 O.2       6 UNK        -0.5237 
     44 N          28.7169   31.7092    3.8498 N.am      7 UNK        -0.4739 
     45 CA         29.4984   32.7532    4.4977 C.3       7 UNK         0.0276 
     46 CB         29.9114   33.8199    3.4680 C.3       7 UNK        -0.1927 
     47 C          30.7236   32.0749    5.1153 C.2       7 UNK         0.5013 
     48 O          31.1888   31.0691    4.5690 O.2       7 UNK        -0.5193 
     49 N          31.2319   32.6332    6.2213 N.am      8 UNK        -0.4253 
     50 CA         32.4018   32.1312    6.9475 C.3       8 UNK         0.0242 
     51 CB         32.6197   32.9743    8.2150 C.3       8 UNK        -0.2000 
     52 C          33.6572   32.1387    6.0612 C.2       8 UNK         0.4948 
     53 O          34.0520   33.2059    5.5859 O.2       8 UNK        -0.5275 
     54 N          34.2190   30.9469    5.8151 N.am      9 UNK        -0.4246 
     55 CA         35.3699   30.6251    4.9551 C.3       9 UNK         0.0261 
     56 CB         36.6569   31.3044    5.4633 C.3       9 UNK        -0.1959 
     57 C          35.1644   30.8946    3.4502 C.2       9 UNK         0.5033 
     58 O          35.6252   30.0950    2.6354 O.2       9 UNK        -0.5390 
     59 N          34.4985   32.0022    3.1043 N.am      10 UNK        -0.4215 
     60 CA         34.2143   32.4333    1.7358 C.3       10 UNK         0.0240 
     61 CB         33.7561   33.9011    1.7514 C.3       10 UNK        -0.1982 
     62 C          33.1828   31.5500    1.0137 C.2       10 UNK         0.4970 
     63 O          33.3678   31.2886   -0.1755 O.2       10 UNK        -0.4916 
     64 N          32.1400   31.1233    1.7450 N.am      11 UNK        -0.4279 
     65 CA         30.9917   30.3067    1.3071 C.3       11 UNK         0.1003 
     66 C          30.3069   30.7146   -0.0360 C.2       11 UNK         0.5709 
     67 N          29.4965   29.8531   -0.6387 N.am      11 UNK        -0.7358 
     68 O          30.4229   31.8483   -0.4973 O.2       11 UNK        -0.4999 
     69 C69        31.2204   28.7850    1.5294 C.3       12 UNK        -0.0954 
     70 S70        32.6212   28.0781    0.6002 S.3       12 UNK        -0.2268 
     71 C71        33.5741   27.2939    1.9344 C.3       12 UNK         0.0203 
     72 H72        26.2303   17.8251    3.1682 H         1 UNK         0.0888 
     73 H73        24.9218   18.8929    2.6521 H         1 UNK         0.0888 
     74 H74        26.1495   19.4800    3.7755 H         1 UNK         0.0888 
     75 H75        27.5966   20.8537    2.7643 H         1 UNK         0.3017 
     76 H76        28.9380   20.1662    0.3052 H         1 UNK         0.0873 
     77 H77        29.0386   22.8466    1.8129 H         1 UNK         0.0745 
     78 H78        29.9493   21.4387    2.2895 H         1 UNK         0.0745 
     79 H79        32.3185   21.5640    1.9710 H         1 UNK         0.0705 
     80 H80        33.1668   22.4200    0.7123 H         1 UNK         0.0705 
     81 H81        33.3652   24.8701    0.7287 H         1 UNK         0.1334 
     82 H82        32.2326   26.9621    4.2980 H         1 UNK         0.1417 
     83 H83        31.1628   22.8416    3.7994 H         1 UNK         0.1562 
     84 H84        31.1797   25.7888    6.1220 H         1 UNK         0.0748 
     85 H85        31.3122   24.0511    6.1263 H         1 UNK         0.0748 
     86 H86        29.1561   26.9908    6.1964 H         1 UNK         0.0940 
     87 H87        27.5416   26.4243    5.8949 H         1 UNK         0.0940 
     88 H88        29.5683   27.3386    3.8025 H         1 UNK         0.0703 
     89 H89        28.4680   26.2702    2.2086 H         1 UNK         0.3081 
     90 H90        25.7188   24.5483    1.8198 H         1 UNK         0.0719 
     91 H91        25.2051   27.3920    0.7966 H         1 UNK         0.0809 
     92 H92        24.5086   25.9208    0.1196 H         1 UNK         0.0809 
     93 H93        24.0936   26.4206    1.7492 H         1 UNK         0.0809 
     94 H94        27.1327   24.4007    0.1716 H         1 UNK         0.2990 
     95 H95        28.4295   26.4350   -2.1531 H         1 UNK         0.0690 
     96 H96        30.8061   25.5838   -1.8393 H         1 UNK         0.0788 
     97 H97        30.5032   25.4919   -0.1035 H         1 UNK         0.0788 
     98 H98        30.4361   27.0388   -0.9409 H         1 UNK         0.0788 
     99 H99        29.1130   23.7239   -1.3176 H         1 UNK         0.2993 
    100 H100       26.2034   22.2073   -2.5431 H         1 UNK         0.0949 
    101 H101       27.3826   22.5068   -4.7307 H         1 UNK         0.0767 
    102 H102       28.9261   22.1608   -3.9628 H         1 UNK         0.0767 
    103 H103       27.6842   20.9112   -4.0643 H         1 UNK         0.0767 
    104 H104       28.7104   21.1186   -1.7197 H         1 UNK         0.3013 
    105 H105       27.7573   28.7371    2.2143 H         1 UNK         0.3121 
    106 H106       25.8539   30.2790    3.4996 H         1 UNK         0.0774 
    107 H107       27.3565   30.9068    0.9034 H         1 UNK         0.0815 
    108 H108       25.7944   31.5582    1.3700 H         1 UNK         0.0815 
    109 H109       25.9590   29.8414    1.0446 H         1 UNK         0.0815 
    110 H110       29.2269   30.8463    3.7129 H         1 UNK         0.2987 
    111 H111       28.9053   33.2103    5.2930 H         1 UNK         0.0949 
    112 H112       30.4550   33.3832    2.6297 H         1 UNK         0.0806 
    113 H113       29.0406   34.3363    3.0640 H         1 UNK         0.0806 
    114 H114       30.5547   34.5760    3.9200 H         1 UNK         0.0806 
    115 H115       30.8101   33.4780    6.5794 H         1 UNK         0.3010 
    116 H116       32.1866   31.1053    7.2541 H         1 UNK         0.0829 
    117 H117       31.7553   32.9281    8.8777 H         1 UNK         0.0813 
    118 H118       33.4796   32.6124    8.7805 H         1 UNK         0.0813 
    119 H119       32.8055   34.0226    7.9767 H         1 UNK         0.0813 
    120 H120       33.7667   30.1385    6.2201 H         1 UNK         0.3038 
    121 H121       35.5118   29.5475    5.0541 H         1 UNK         0.0769 
    122 H122       36.6039   32.3909    5.3879 H         1 UNK         0.0811 
    123 H123       37.5214   30.9827    4.8810 H         1 UNK         0.0811 
    124 H124       36.8552   31.0498    6.5044 H         1 UNK         0.0811 
    125 H125       34.2067   32.6146    3.8644 H         1 UNK         0.3204 
    126 H126       35.1469   32.3771    1.1700 H         1 UNK         0.0748 
    127 H127       33.5303   34.2513    0.7431 H         1 UNK         0.0771 
    128 H128       32.8584   34.0389    2.3546 H         1 UNK         0.0771 
    129 H129       34.5318   34.5529    2.1540 H         1 UNK         0.0771 
    130 H130       32.1148   31.3722    2.7260 H         1 UNK         0.2980 
    131 H131       30.2213   30.5763    2.0239 H         1 UNK         0.0545 
    132 H132       29.0392   30.1430   -1.4877 H         1 UNK         0.3459 
    133 H133       29.2825   28.9450   -0.2481 H         1 UNK         0.3459 
    134 H134       30.3258   28.2067    1.3015 H         1 UNK         0.0616 
    135 H135       31.3916   28.6241    2.5938 H         1 UNK         0.0616 
    136 H136       34.5591   27.0242    1.5511 H         1 UNK         0.0634 
    137 H137       33.7451   28.0160    2.7342 H         1 UNK         0.0634 
@<TRIPOS>BOND
     1    1    2 1    
     2    1   72 1    
     3    1   73 1    
     4    1   74 1    
     5    2    3 2    
     6    2    4 am   BACKBONE|DICT|INTERRES
     7    4    5 1    
     8    4   75 1    
     9    5    6 1    
    10    5   35 1    
    11    5   76 1    
    12    6    7 1    
    13    6   77 1    
    14    6   78 1    
    15    7    8 1    
    16    8    9 1    
    17    8   79 1    
    18    8   80 1    
    19    9   10 ar   
    20    9   14 ar   
    21   10   11 ar   
    22   10   81 1    
    23   11   12 ar   
    24   11   71 1    
    25   12   13 ar   
    26   12   82 1    
    27   13   14 ar   
    28   13   15 1    
    29   14   83 1    
    30   15   16 1    
    31   15   84 1    
    32   15   85 1    
    33   16   17 1    
    34   17   18 1    
    35   17   86 1    
    36   17   87 1    
    37   18   19 1    
    38   18   37 1    
    39   18   88 1    
    40   19   20 am   BACKBONE|DICT|INTERRES
    41   19   89 1    
    42   20   21 2    
    43   20   22 1    
    44   22   23 1    
    45   22   24 1    
    46   22   90 1    
    47   23   91 1    
    48   23   92 1    
    49   23   93 1    
    50   24   25 am   BACKBONE|DICT|INTERRES
    51   24   94 1    
    52   25   26 2    
    53   25   27 1    
    54   27   28 1    
    55   27   29 1    
    56   27   95 1    
    57   28   96 1    
    58   28   97 1    
    59   28   98 1    
    60   29   30 am   BACKBONE|DICT|INTERRES
    61   29   99 1    
    62   30   31 2    
    63   30   32 1    
    64   32   33 1    
    65   32   34 1    
    66   32  100 1    
    67   33  101 1    
    68   33  102 1    
    69   33  103 1    
    70   34   35 am   BACKBONE|DICT|INTERRES
    71   34  104 1    
    72   35   36 2    
    73   37   38 2    
    74   37   39 am   BACKBONE|DICT|INTERRES
    75   39   40 1    
    76   39  105 1    
    77   40   41 1    
    78   40   42 1    
    79   40  106 1    
    80   41  107 1    
    81   41  108 1    
    82   41  109 1    
    83   42   43 2    
    84   42   44 am   BACKBONE|DICT|INTERRES
    85   44   45 1    
    86   44  110 1    
    87   45   46 1    
    88   45   47 1    
    89   45  111 1    
    90   46  112 1    
    91   46  113 1    
    92   46  114 1    
    93   47   48 2    
    94   47   49 am   BACKBONE|DICT|INTERRES
    95   49   50 1    
    96   49  115 1    
    97   50   51 1    
    98   50   52 1    
    99   50  116 1    
   100   51  117 1    
   101   51  118 1    
   102   51  119 1    
   103   52   53 2    
   104   52   54 am   BACKBONE|DICT|INTERRES
   105   54   55 1    
   106   54  120 1    
   107   55   56 1    
   108   55   57 1    
   109   55  121 1    
   110   56  122 1    
   111   56  123 1    
   112   56  124 1    
   113   57   58 2    
   114   57   59 am   BACKBONE|DICT|INTERRES
   115   59   60 1    
   116   59  125 1    
   117   60   61 1    
   118   60   62 1    
   119   60  126 1    
   120   61  127 1    
   121   61  128 1    
   122   61  129 1    
   123   62   63 2    
   124   62   64 am   BACKBONE|DICT|INTERRES
   125   64   65 1    
   126   64  130 1    
   127   65   66 1    
   128   65   69 1    
   129   65  131 1    
   130   66   67 am   BACKBONE|DICT|INTERRES
   131   66   68 2    
   132   67  132 1    
   133   67  133 1    
   134   69   70 1    
   135   69  134 1    
   136   69  135 1    
   137   70   71 1    
   138   71  136 1    
   139   71  137 1    
@<TRIPOS>SUBSTRUCTURE
     1 UNK         1 GROUP             0       ****    0 ROOT    
