@<TRIPOS>MOLECULE
3R136
137   139    1
SMALL
USER_CHARGES


@<TRIPOS>ATOM
      1 CA         26.5570   19.4509   -1.4082 C.3       0 UNK        -0.1979 
      2 C          26.8781   19.1840    0.0609 C.2       0 UNK         0.4864 
      3 O          26.1700   18.4023    0.6937 O.2       0 UNK        -0.5359 
      4 N          27.9248   19.7822    0.6525 N.am      1 UNK        -0.4318 
      5 CA         28.8343   20.7844    0.0824 C.3       1 UNK         0.0824 
      6 C6         30.0391   21.0337    1.0265 C.3       12 UNK        -0.0944 
      7 S7         31.4761   21.8216    0.2197 S.3       12 UNK        -0.2672 
      8 C8         31.2333   23.5973    0.5556 C.3       12 UNK         0.0333 
      9 C9         31.2643   23.9343    2.0408 C.ar      12 UNK        -0.0807 
     10 C10        32.4869   24.1062    2.7005 C.ar      12 UNK        -0.0894 
     11 C11        32.5151   24.4458    4.0573 C.ar      12 UNK        -0.0804 
     12 C12        31.3147   24.5692    4.7613 C.ar      12 UNK        -0.0824 
     13 C13        30.0881   24.3932    4.1168 C.ar      12 UNK        -0.0762 
     14 C14        30.0700   24.0990    2.7519 C.ar      12 UNK        -0.0782 
     15 C15        28.7944   24.4664    4.9158 C.3       12 UNK         0.0230 
     16 S16        28.5141   26.1165    5.6314 S.3       12 UNK        -0.2608 
     17 C17        27.4325   26.9232    4.4069 C.3       12 UNK        -0.0989 
     18 CA         28.1365   28.1199    3.7263 C.3       5 UNK         0.0716 
     19 N          29.0873   27.7093    2.6896 N.am      5 UNK        -0.4135 
     20 C          30.0072   28.5165    2.1423 C.2       4 UNK         0.5031 
     21 O          30.2167   29.6696    2.5155 O.2       4 UNK        -0.5229 
     22 CA         30.8157   27.9681    0.9579 C.3       4 UNK         0.0329 
     23 CB         32.1114   27.3129    1.4476 C.3       4 UNK        -0.2001 
     24 N          30.0457   27.0389    0.1267 N.am      4 UNK        -0.4303 
     25 C          29.0602   27.4439   -0.6865 C.2       3 UNK         0.5044 
     26 O          28.6915   28.6145   -0.7759 O.2       3 UNK        -0.5152 
     27 CA         28.3572   26.3710   -1.5316 C.3       3 UNK         0.0319 
     28 CB         29.2603   25.9173   -2.6900 C.3       3 UNK        -0.2001 
     29 N          27.8802   25.1928   -0.8005 N.am      3 UNK        -0.4354 
     30 C          27.1321   25.1731    0.3090 C.2       2 UNK         0.4964 
     31 O          26.9130   26.1640    1.0061 O.2       2 UNK        -0.5047 
     32 CA         26.4921   23.8263    0.7063 C.3       2 UNK         0.0288 
     33 CB         25.2483   23.5505   -0.1603 C.3       2 UNK        -0.2113 
     34 N          27.3775   22.6484    0.7307 N.am      2 UNK        -0.4145 
     35 C          28.0858   22.0882   -0.2640 C.2       1 UNK         0.5006 
     36 O          28.1359   22.5262   -1.4137 O.2       1 UNK        -0.5103 
     37 C          27.1136   29.1249    3.1671 C.2       5 UNK         0.5055 
     38 O          26.8611   30.1415    3.8149 O.2       5 UNK        -0.5220 
     39 N          26.5947   28.8657    1.9568 N.am      6 UNK        -0.4450 
     40 CA         25.7245   29.7823    1.2096 C.3       6 UNK         0.0367 
     41 CB         25.2203   29.0885   -0.0656 C.3       6 UNK        -0.1929 
     42 C          26.4048   31.1250    0.8752 C.2       6 UNK         0.5070 
     43 O          25.7342   32.1565    0.8528 O.2       6 UNK        -0.5237 
     44 N          27.7302   31.0957    0.6848 N.am      7 UNK        -0.4739 
     45 CA         28.6050   32.2598    0.5231 C.3       7 UNK         0.0276 
     46 CB         29.8018   31.8525   -0.3535 C.3       7 UNK        -0.1927 
     47 C          29.0582   32.8898    1.8617 C.2       7 UNK         0.5013 
     48 O          30.0142   33.6661    1.8578 O.2       7 UNK        -0.5193 
     49 N          28.3674   32.5715    2.9682 N.am      8 UNK        -0.4253 
     50 CA         28.5548   33.0849    4.3312 C.3       8 UNK         0.0242 
     51 CB         28.3552   34.6155    4.3919 C.3       8 UNK        -0.2000 
     52 C          29.8686   32.6113    4.9801 C.2       8 UNK         0.4948 
     53 O          30.6306   33.4267    5.5032 O.2       8 UNK        -0.5275 
     54 N          30.0823   31.2878    4.9510 N.am      9 UNK        -0.4246 
     55 CA         31.2183   30.5446    5.5152 C.3       9 UNK         0.0261 
     56 CB         31.2509   30.6573    7.0540 C.3       9 UNK        -0.1959 
     57 C          32.5551   30.9198    4.8496 C.2       9 UNK         0.5033 
     58 O          33.5551   31.1527    5.5333 O.2       9 UNK        -0.5390 
     59 N          32.5467   30.9515    3.5106 N.am      10 UNK        -0.4215 
     60 CA         33.6743   31.3445    2.6586 C.3       10 UNK         0.0240 
     61 CB         33.1881   31.4638    1.2062 C.3       10 UNK        -0.1982 
     62 C          34.9064   30.4235    2.7444 C.2       10 UNK         0.4970 
     63 O          35.9914   30.8452    2.3417 O.2       10 UNK        -0.4916 
     64 N          34.7317   29.2008    3.2630 N.am      11 UNK        -0.4279 
     65 CA         35.8147   28.2483    3.5406 C.3       11 UNK         0.1003 
     66 C          36.7012   28.6194    4.7686 C.2       11 UNK         0.5709 
     67 N          36.3181   29.5793    5.6052 N.am      11 UNK        -0.7358 
     68 O          37.7650   28.0331    4.9548 O.2       11 UNK        -0.4999 
     69 C69        35.2888   26.7881    3.5987 C.3       12 UNK        -0.0954 
     70 S70        34.1500   26.4653    4.9877 S.3       12 UNK        -0.2268 
     71 C71        33.8311   24.6844    4.7795 C.3       12 UNK         0.0203 
     72 H72        27.4558   19.5216   -2.0188 H         1 UNK         0.0888 
     73 H73        25.9531   18.6404   -1.8155 H         1 UNK         0.0888 
     74 H74        25.9877   20.3741   -1.5128 H         1 UNK         0.0888 
     75 H75        28.1043   19.5464    1.6182 H         1 UNK         0.3017 
     76 H76        29.2295   20.3722   -0.8481 H         1 UNK         0.0873 
     77 H77        29.7471   21.5748    1.9251 H         1 UNK         0.0745 
     78 H78        30.4066   20.0726    1.3906 H         1 UNK         0.0745 
     79 H79        32.0199   24.1535    0.0433 H         1 UNK         0.0705 
     80 H80        30.2969   23.9242    0.1055 H         1 UNK         0.0705 
     81 H81        33.4132   23.9966    2.1531 H         1 UNK         0.1334 
     82 H82        31.3345   24.8105    5.8155 H         1 UNK         0.1417 
     83 H83        29.1240   23.9692    2.2513 H         1 UNK         0.1562 
     84 H84        28.8570   23.7472    5.7337 H         1 UNK         0.0748 
     85 H85        27.9357   24.1601    4.3170 H         1 UNK         0.0748 
     86 H86        26.5489   27.2553    4.9566 H         1 UNK         0.0940 
     87 H87        27.0684   26.2059    3.6705 H         1 UNK         0.0940 
     88 H88        28.7003   28.6549    4.4934 H         1 UNK         0.0703 
     89 H89        28.9607   26.7869    2.3022 H         1 UNK         0.3081 
     90 H90        31.0965   28.8119    0.3248 H         1 UNK         0.0719 
     91 H91        32.8280   28.0764    1.7421 H         1 UNK         0.0809 
     92 H92        32.5876   26.7087    0.6756 H         1 UNK         0.0809 
     93 H93        31.9391   26.6879    2.3218 H         1 UNK         0.0809 
     94 H94        30.2986   26.0639    0.1494 H         1 UNK         0.2990 
     95 H95        27.4730   26.8424   -1.9651 H         1 UNK         0.0690 
     96 H96        28.7196   25.2726   -3.3832 H         1 UNK         0.0788 
     97 H97        30.1315   25.3661   -2.3340 H         1 UNK         0.0788 
     98 H98        29.6242   26.7719   -3.2625 H         1 UNK         0.0788 
     99 H99        28.0047   24.2947   -1.2661 H         1 UNK         0.2993 
    100 H100       26.1454   23.9517    1.7338 H         1 UNK         0.0949 
    101 H101       25.5072   23.3892   -1.2074 H         1 UNK         0.0767 
    102 H102       24.7102   22.6694    0.1897 H         1 UNK         0.0767 
    103 H103       24.5521   24.3898   -0.1237 H         1 UNK         0.0767 
    104 H104       27.4017   22.1685    1.6199 H         1 UNK         0.3013 
    105 H105       26.8190   27.9794    1.5091 H         1 UNK         0.3121 
    106 H106       24.8613   30.0023    1.8413 H         1 UNK         0.0774 
    107 H107       26.0382   28.8385   -0.7412 H         1 UNK         0.0815 
    108 H108       24.5313   29.7330   -0.6130 H         1 UNK         0.0815 
    109 H109       24.6870   28.1668    0.1681 H         1 UNK         0.0815 
    110 H110       28.1835   30.1898    0.6547 H         1 UNK         0.2987 
    111 H111       28.0536   33.0367   -0.0108 H         1 UNK         0.0949 
    112 H112       30.4122   31.0952    0.1356 H         1 UNK         0.0806 
    113 H113       29.4723   31.4468   -1.3102 H         1 UNK         0.0806 
    114 H114       30.4455   32.7059   -0.5701 H         1 UNK         0.0806 
    115 H115       27.6351   31.8765    2.8762 H         1 UNK         0.3010 
    116 H116       27.7555   32.6387    4.9253 H         1 UNK         0.0829 
    117 H117       29.1457   35.1523    3.8669 H         1 UNK         0.0813 
    118 H118       27.4011   34.9092    3.9544 H         1 UNK         0.0813 
    119 H119       28.3595   34.9665    5.4245 H         1 UNK         0.0813 
    120 H120       29.4367   30.7335    4.4036 H         1 UNK         0.3038 
    121 H121       31.0464   29.4948    5.2720 H         1 UNK         0.0769 
    122 H122       32.0218   30.0104    7.4748 H         1 UNK         0.0811 
    123 H123       31.4674   31.6741    7.3828 H         1 UNK         0.0811 
    124 H124       30.3004   30.3563    7.4942 H         1 UNK         0.0811 
    125 H125       31.6787   30.6964    3.0421 H         1 UNK         0.3204 
    126 H126       33.9979   32.3337    2.9888 H         1 UNK         0.0748 
    127 H127       32.3966   32.2082    1.1191 H         1 UNK         0.0771 
    128 H128       33.9968   31.7776    0.5447 H         1 UNK         0.0771 
    129 H129       32.8065   30.5155    0.8282 H         1 UNK         0.0771 
    130 H130       33.8195   28.9421    3.6052 H         1 UNK         0.2980 
    131 H131       36.4906   28.2898    2.6843 H         1 UNK         0.0545 
    132 H132       35.4392   30.0648    5.4741 H         1 UNK         0.3459 
    133 H133       36.9057   29.8100    6.3901 H         1 UNK         0.3459 
    134 H134       34.7758   26.5407    2.6683 H         1 UNK         0.0616 
    135 H135       36.1274   26.0931    3.6693 H         1 UNK         0.0616 
    136 H136       34.6585   24.2075    4.2520 H         1 UNK         0.0634 
    137 H137       33.7917   24.2193    5.7656 H         1 UNK         0.0634 
@<TRIPOS>BOND
     1    1    2 1    
     2    1   72 1    
     3    1   73 1    
     4    1   74 1    
     5    2    3 2    
     6    2    4 am   BACKBONE|DICT|INTERRES
     7    4    5 1    
     8    4   75 1    
     9    5    6 1    
    10    5   35 1    
    11    5   76 1    
    12    6    7 1    
    13    6   77 1    
    14    6   78 1    
    15    7    8 1    
    16    8    9 1    
    17    8   79 1    
    18    8   80 1    
    19    9   10 ar   
    20    9   14 ar   
    21   10   11 ar   
    22   10   81 1    
    23   11   12 ar   
    24   11   71 1    
    25   12   13 ar   
    26   12   82 1    
    27   13   14 ar   
    28   13   15 1    
    29   14   83 1    
    30   15   16 1    
    31   15   84 1    
    32   15   85 1    
    33   16   17 1    
    34   17   18 1    
    35   17   86 1    
    36   17   87 1    
    37   18   19 1    
    38   18   37 1    
    39   18   88 1    
    40   19   20 am   BACKBONE|DICT|INTERRES
    41   19   89 1    
    42   20   21 2    
    43   20   22 1    
    44   22   23 1    
    45   22   24 1    
    46   22   90 1    
    47   23   91 1    
    48   23   92 1    
    49   23   93 1    
    50   24   25 am   BACKBONE|DICT|INTERRES
    51   24   94 1    
    52   25   26 2    
    53   25   27 1    
    54   27   28 1    
    55   27   29 1    
    56   27   95 1    
    57   28   96 1    
    58   28   97 1    
    59   28   98 1    
    60   29   30 am   BACKBONE|DICT|INTERRES
    61   29   99 1    
    62   30   31 2    
    63   30   32 1    
    64   32   33 1    
    65   32   34 1    
    66   32  100 1    
    67   33  101 1    
    68   33  102 1    
    69   33  103 1    
    70   34   35 am   BACKBONE|DICT|INTERRES
    71   34  104 1    
    72   35   36 2    
    73   37   38 2    
    74   37   39 am   BACKBONE|DICT|INTERRES
    75   39   40 1    
    76   39  105 1    
    77   40   41 1    
    78   40   42 1    
    79   40  106 1    
    80   41  107 1    
    81   41  108 1    
    82   41  109 1    
    83   42   43 2    
    84   42   44 am   BACKBONE|DICT|INTERRES
    85   44   45 1    
    86   44  110 1    
    87   45   46 1    
    88   45   47 1    
    89   45  111 1    
    90   46  112 1    
    91   46  113 1    
    92   46  114 1    
    93   47   48 2    
    94   47   49 am   BACKBONE|DICT|INTERRES
    95   49   50 1    
    96   49  115 1    
    97   50   51 1    
    98   50   52 1    
    99   50  116 1    
   100   51  117 1    
   101   51  118 1    
   102   51  119 1    
   103   52   53 2    
   104   52   54 am   BACKBONE|DICT|INTERRES
   105   54   55 1    
   106   54  120 1    
   107   55   56 1    
   108   55   57 1    
   109   55  121 1    
   110   56  122 1    
   111   56  123 1    
   112   56  124 1    
   113   57   58 2    
   114   57   59 am   BACKBONE|DICT|INTERRES
   115   59   60 1    
   116   59  125 1    
   117   60   61 1    
   118   60   62 1    
   119   60  126 1    
   120   61  127 1    
   121   61  128 1    
   122   61  129 1    
   123   62   63 2    
   124   62   64 am   BACKBONE|DICT|INTERRES
   125   64   65 1    
   126   64  130 1    
   127   65   66 1    
   128   65   69 1    
   129   65  131 1    
   130   66   67 am   BACKBONE|DICT|INTERRES
   131   66   68 2    
   132   67  132 1    
   133   67  133 1    
   134   69   70 1    
   135   69  134 1    
   136   69  135 1    
   137   70   71 1    
   138   71  136 1    
   139   71  137 1    
@<TRIPOS>SUBSTRUCTURE
     1 UNK         1 GROUP             0       ****    0 ROOT    
