@<TRIPOS>MOLECULE
3R136
137   139    1
SMALL
USER_CHARGES


@<TRIPOS>ATOM
      1 CA         28.9687   18.5731   -3.9613 C.3       0 UNK        -0.1979 
      2 C          28.5922   19.9909   -3.5565 C.2       0 UNK         0.4864 
      3 O          27.9121   20.6834   -4.3158 O.2       0 UNK        -0.5359 
      4 N          29.0369   20.4296   -2.3721 N.am      1 UNK        -0.4318 
      5 CA         28.7371   21.7450   -1.7980 C.3       1 UNK         0.0824 
      6 C6         29.6443   22.0646   -0.5836 C.3       12 UNK        -0.0944 
      7 S7         31.4299   22.0419   -0.9721 S.3       12 UNK        -0.2672 
      8 C8         31.9273   23.7782   -0.6757 C.3       12 UNK         0.0333 
      9 C9         32.1352   24.1755    0.7917 C.ar      12 UNK        -0.0807 
     10 C10        32.9819   25.2507    1.0860 C.ar      12 UNK        -0.0894 
     11 C11        33.2087   25.6627    2.4047 C.ar      12 UNK        -0.0804 
     12 C12        32.5551   24.9865    3.4448 C.ar      12 UNK        -0.0824 
     13 C13        31.6859   23.9271    3.1719 C.ar      12 UNK        -0.0762 
     14 C14        31.4951   23.5202    1.8501 C.ar      12 UNK        -0.0782 
     15 C15        30.9623   23.1965    4.2970 C.3       12 UNK         0.0230 
     16 S16        29.1494   23.3411    4.1446 S.3       12 UNK        -0.2608 
     17 C17        28.7788   24.8102    5.1634 C.3       12 UNK        -0.0989 
     18 CA         29.2704   26.1495    4.5613 C.3       5 UNK         0.0716 
     19 N          28.8610   26.3243    3.1635 N.am      5 UNK        -0.4135 
     20 C          29.2395   27.3307    2.3650 C.2       4 UNK         0.5031 
     21 O          29.9685   28.2540    2.7236 O.2       4 UNK        -0.5229 
     22 CA         28.6506   27.3656    0.9479 C.3       4 UNK         0.0329 
     23 CB         29.5265   26.5385   -0.0030 C.3       4 UNK        -0.2001 
     24 N          27.2631   26.9077    0.8249 N.am      4 UNK        -0.4303 
     25 C          26.2027   27.2073    1.5876 C.2       3 UNK         0.5044 
     26 O          26.2622   27.8941    2.6081 O.2       3 UNK        -0.5152 
     27 CA         24.8391   26.6247    1.1566 C.3       3 UNK         0.0319 
     28 CB         24.0866   27.6246    0.2577 C.3       3 UNK        -0.2001 
     29 N          24.8772   25.2810    0.5448 N.am      3 UNK        -0.4354 
     30 C          25.4547   24.8951   -0.6029 C.2       2 UNK         0.4964 
     31 O          26.0738   25.6519   -1.3552 O.2       2 UNK        -0.5047 
     32 CA         25.3744   23.4091   -0.9607 C.3       2 UNK         0.0288 
     33 CB         24.2721   23.1412   -1.9999 C.3       2 UNK        -0.2113 
     34 N          26.6784   23.0334   -1.4982 N.am      2 UNK        -0.4145 
     35 C          27.2581   21.8368   -1.3665 C.2       1 UNK         0.5006 
     36 O          26.6997   20.8545   -0.8691 O.2       1 UNK        -0.5103 
     37 C          28.8940   27.3297    5.4869 C.2       5 UNK         0.5055 
     38 O          29.4889   27.4494    6.5586 O.2       5 UNK        -0.5220 
     39 N          27.9424   28.1763    5.0702 N.am      6 UNK        -0.4450 
     40 CA         27.5813   29.4241    5.7357 C.3       6 UNK         0.0367 
     41 CB         26.3608   29.1857    6.6459 C.3       6 UNK        -0.1929 
     42 C          27.3545   30.5358    4.6955 C.2       6 UNK         0.5070 
     43 O          26.4321   31.3370    4.8592 O.2       6 UNK        -0.5237 
     44 N          28.1811   30.5720    3.6396 N.am      7 UNK        -0.4739 
     45 CA         28.0867   31.5668    2.5665 C.3       7 UNK         0.0276 
     46 CB         26.9960   31.1615    1.5566 C.3       7 UNK        -0.1927 
     47 C          29.4144   31.8414    1.8435 C.2       7 UNK         0.5013 
     48 O          29.6083   32.9690    1.3838 O.2       7 UNK        -0.5193 
     49 N          30.2985   30.8417    1.7120 N.am      8 UNK        -0.4253 
     50 CA         31.5463   30.9417    0.9509 C.3       8 UNK         0.0242 
     51 CB         31.9651   29.5449    0.4587 C.3       8 UNK        -0.2000 
     52 C          32.6551   31.6537    1.7448 C.2       8 UNK         0.4948 
     53 O          33.6117   31.0124    2.1868 O.2       8 UNK        -0.5275 
     54 N          32.5038   32.9788    1.8818 N.am      9 UNK        -0.4246 
     55 CA         33.4489   33.9454    2.4511 C.3       9 UNK         0.0261 
     56 CB         34.6549   34.1395    1.5041 C.3       9 UNK        -0.1959 
     57 C          33.8537   33.5998    3.8948 C.2       9 UNK         0.5033 
     58 O          33.1301   33.9593    4.8245 O.2       9 UNK        -0.5390 
     59 N          34.9951   32.9161    4.0547 N.am      10 UNK        -0.4215 
     60 CA         35.5147   32.4282    5.3330 C.3       10 UNK         0.0240 
     61 CB         36.9575   31.9340    5.1390 C.3       10 UNK        -0.1982 
     62 C          34.6463   31.3237    5.9606 C.2       10 UNK         0.4970 
     63 O          34.6210   31.2151    7.1875 O.2       10 UNK        -0.4916 
     64 N          33.9545   30.5354    5.1273 N.am      11 UNK        -0.4279 
     65 CA         32.9684   29.5445    5.5674 C.3       11 UNK         0.1003 
     66 C          31.6252   30.2559    5.8675 C.2       11 UNK         0.5709 
     67 N          31.2354   30.3515    7.1315 N.am      11 UNK        -0.7358 
     68 O          30.9363   30.7191    4.9631 O.2       11 UNK        -0.4999 
     69 C69        32.8046   28.3990    4.5382 C.3       12 UNK        -0.0954 
     70 S70        34.3358   27.4253    4.3569 S.3       12 UNK        -0.2268 
     71 C71        34.1933   26.8141    2.6409 C.3       12 UNK         0.0203 
     72 H72        28.0704   17.9745   -4.1094 H         1 UNK         0.0888 
     73 H73        29.5287   18.5858   -4.8960 H         1 UNK         0.0888 
     74 H74        29.5821   18.0828   -3.2055 H         1 UNK         0.0888 
     75 H75        29.5862   19.8166   -1.7873 H         1 UNK         0.3017 
     76 H76        28.9183   22.4946   -2.5718 H         1 UNK         0.0873 
     77 H77        29.3847   23.0412   -0.1709 H         1 UNK         0.0745 
     78 H78        29.4702   21.3435    0.2179 H         1 UNK         0.0745 
     79 H79        32.8610   23.9375   -1.2173 H         1 UNK         0.0705 
     80 H80        31.1976   24.4450   -1.1350 H         1 UNK         0.0705 
     81 H81        33.4818   25.7682    0.2782 H         1 UNK         0.1334 
     82 H82        32.7160   25.2742    4.4732 H         1 UNK         0.1417 
     83 H83        30.8355   22.6871    1.6671 H         1 UNK         0.1562 
     84 H84        31.2836   23.5550    5.2761 H         1 UNK         0.0748 
     85 H85        31.2319   22.1403    4.2561 H         1 UNK         0.0748 
     86 H86        29.2100   24.6561    6.1549 H         1 UNK         0.0940 
     87 H87        27.6973   24.8398    5.3108 H         1 UNK         0.0940 
     88 H88        30.3584   26.1244    4.5554 H         1 UNK         0.0703 
     89 H89        28.2544   25.6116    2.7870 H         1 UNK         0.3081 
     90 H90        28.6758   28.4036    0.6135 H         1 UNK         0.0719 
     91 H91        29.4601   25.4751    0.2263 H         1 UNK         0.0809 
     92 H92        29.2297   26.6784   -1.0426 H         1 UNK         0.0809 
     93 H93        30.5765   26.8225    0.0764 H         1 UNK         0.0809 
     94 H94        27.0463   26.3854   -0.0208 H         1 UNK         0.2990 
     95 H95        24.2570   26.5106    2.0726 H         1 UNK         0.0690 
     96 H96        23.0847   27.2675    0.0194 H         1 UNK         0.0788 
     97 H97        24.6105   27.8055   -0.6814 H         1 UNK         0.0788 
     98 H98        23.9767   28.5889    0.7562 H         1 UNK         0.0788 
     99 H99        24.4199   24.5647    1.0931 H         1 UNK         0.2993 
    100 H100       25.1704   22.8340   -0.0545 H         1 UNK         0.0949 
    101 H101       24.2219   22.0834   -2.2592 H         1 UNK         0.0767 
    102 H102       23.2931   23.4286   -1.6142 H         1 UNK         0.0767 
    103 H103       24.4407   23.7032   -2.9197 H         1 UNK         0.0767 
    104 H104       27.1969   23.8086   -1.8931 H         1 UNK         0.3013 
    105 H105       27.4865   28.0141    4.1745 H         1 UNK         0.3121 
    106 H106       28.4114   29.7633    6.3579 H         1 UNK         0.0774 
    107 H107       25.4872   28.8790    6.0694 H         1 UNK         0.0815 
    108 H108       26.0940   30.0913    7.1919 H         1 UNK         0.0815 
    109 H109       26.5640   28.4117    7.3861 H         1 UNK         0.0815 
    110 H110       28.9610   29.9240    3.6096 H         1 UNK         0.2987 
    111 H111       27.7945   32.5200    3.0134 H         1 UNK         0.0949 
    112 H112       27.2108   30.1975    1.0974 H         1 UNK         0.0806 
    113 H113       26.0176   31.0907    2.0320 H         1 UNK         0.0806 
    114 H114       26.9119   31.8953    0.7539 H         1 UNK         0.0806 
    115 H115       30.1242   29.9392    2.1491 H         1 UNK         0.3010 
    116 H116       31.3628   31.5422    0.0569 H         1 UNK         0.0829 
    117 H117       32.0826   28.8421    1.2812 H         1 UNK         0.0813 
    118 H118       31.2260   29.1358   -0.2291 H         1 UNK         0.0813 
    119 H119       32.9154   29.5847   -0.0752 H         1 UNK         0.0813 
    120 H120       31.6180   33.3629    1.5668 H         1 UNK         0.3038 
    121 H121       32.9200   34.8984    2.5028 H         1 UNK         0.0769 
    122 H122       35.3764   34.8421    1.9239 H         1 UNK         0.0811 
    123 H123       35.1806   33.2066    1.2983 H         1 UNK         0.0811 
    124 H124       34.3335   34.5486    0.5461 H         1 UNK         0.0811 
    125 H125       35.4893   32.6283    3.2221 H         1 UNK         0.3204 
    126 H126       35.5307   33.2687    6.0301 H         1 UNK         0.0748 
    127 H127       37.3820   31.5902    6.0834 H         1 UNK         0.0771 
    128 H128       37.0079   31.1006    4.4368 H         1 UNK         0.0771 
    129 H129       37.6034   32.7291    4.7658 H         1 UNK         0.0771 
    130 H130       33.9858   30.7123    4.1277 H         1 UNK         0.2980 
    131 H131       33.3240   29.0884    6.4940 H         1 UNK         0.0545 
    132 H132       31.8041   29.9835    7.8778 H         1 UNK         0.3459 
    133 H133       30.3696   30.8181    7.3447 H         1 UNK         0.3459 
    134 H134       32.0105   27.7209    4.8491 H         1 UNK         0.0616 
    135 H135       32.5078   28.7999    3.5690 H         1 UNK         0.0616 
    136 H136       35.1829   26.4742    2.3332 H         1 UNK         0.0634 
    137 H137       33.9469   27.6523    1.9890 H         1 UNK         0.0634 
@<TRIPOS>BOND
     1    1    2 1    
     2    1   72 1    
     3    1   73 1    
     4    1   74 1    
     5    2    3 2    
     6    2    4 am   BACKBONE|DICT|INTERRES
     7    4    5 1    
     8    4   75 1    
     9    5    6 1    
    10    5   35 1    
    11    5   76 1    
    12    6    7 1    
    13    6   77 1    
    14    6   78 1    
    15    7    8 1    
    16    8    9 1    
    17    8   79 1    
    18    8   80 1    
    19    9   10 ar   
    20    9   14 ar   
    21   10   11 ar   
    22   10   81 1    
    23   11   12 ar   
    24   11   71 1    
    25   12   13 ar   
    26   12   82 1    
    27   13   14 ar   
    28   13   15 1    
    29   14   83 1    
    30   15   16 1    
    31   15   84 1    
    32   15   85 1    
    33   16   17 1    
    34   17   18 1    
    35   17   86 1    
    36   17   87 1    
    37   18   19 1    
    38   18   37 1    
    39   18   88 1    
    40   19   20 am   BACKBONE|DICT|INTERRES
    41   19   89 1    
    42   20   21 2    
    43   20   22 1    
    44   22   23 1    
    45   22   24 1    
    46   22   90 1    
    47   23   91 1    
    48   23   92 1    
    49   23   93 1    
    50   24   25 am   BACKBONE|DICT|INTERRES
    51   24   94 1    
    52   25   26 2    
    53   25   27 1    
    54   27   28 1    
    55   27   29 1    
    56   27   95 1    
    57   28   96 1    
    58   28   97 1    
    59   28   98 1    
    60   29   30 am   BACKBONE|DICT|INTERRES
    61   29   99 1    
    62   30   31 2    
    63   30   32 1    
    64   32   33 1    
    65   32   34 1    
    66   32  100 1    
    67   33  101 1    
    68   33  102 1    
    69   33  103 1    
    70   34   35 am   BACKBONE|DICT|INTERRES
    71   34  104 1    
    72   35   36 2    
    73   37   38 2    
    74   37   39 am   BACKBONE|DICT|INTERRES
    75   39   40 1    
    76   39  105 1    
    77   40   41 1    
    78   40   42 1    
    79   40  106 1    
    80   41  107 1    
    81   41  108 1    
    82   41  109 1    
    83   42   43 2    
    84   42   44 am   BACKBONE|DICT|INTERRES
    85   44   45 1    
    86   44  110 1    
    87   45   46 1    
    88   45   47 1    
    89   45  111 1    
    90   46  112 1    
    91   46  113 1    
    92   46  114 1    
    93   47   48 2    
    94   47   49 am   BACKBONE|DICT|INTERRES
    95   49   50 1    
    96   49  115 1    
    97   50   51 1    
    98   50   52 1    
    99   50  116 1    
   100   51  117 1    
   101   51  118 1    
   102   51  119 1    
   103   52   53 2    
   104   52   54 am   BACKBONE|DICT|INTERRES
   105   54   55 1    
   106   54  120 1    
   107   55   56 1    
   108   55   57 1    
   109   55  121 1    
   110   56  122 1    
   111   56  123 1    
   112   56  124 1    
   113   57   58 2    
   114   57   59 am   BACKBONE|DICT|INTERRES
   115   59   60 1    
   116   59  125 1    
   117   60   61 1    
   118   60   62 1    
   119   60  126 1    
   120   61  127 1    
   121   61  128 1    
   122   61  129 1    
   123   62   63 2    
   124   62   64 am   BACKBONE|DICT|INTERRES
   125   64   65 1    
   126   64  130 1    
   127   65   66 1    
   128   65   69 1    
   129   65  131 1    
   130   66   67 am   BACKBONE|DICT|INTERRES
   131   66   68 2    
   132   67  132 1    
   133   67  133 1    
   134   69   70 1    
   135   69  134 1    
   136   69  135 1    
   137   70   71 1    
   138   71  136 1    
   139   71  137 1    
@<TRIPOS>SUBSTRUCTURE
     1 UNK         1 GROUP             0       ****    0 ROOT    
