@<TRIPOS>MOLECULE
3R136
137   139    1
SMALL
USER_CHARGES


@<TRIPOS>ATOM
      1 CA         27.9962   21.0736   -2.8237 C.3       0 UNK        -0.1979 
      2 C          28.2879   20.4161   -1.4764 C.2       0 UNK         0.4864 
      3 O          27.9723   19.2401   -1.3031 O.2       0 UNK        -0.5359 
      4 N          28.8884   21.1110   -0.4976 N.am      1 UNK        -0.4318 
      5 CA         29.2916   22.5247   -0.5168 C.3       1 UNK         0.0824 
      6 C6         30.2294   22.8604    0.6679 C.3       12 UNK        -0.0944 
      7 S7         31.8838   22.1248    0.4355 S.3       12 UNK        -0.2672 
      8 C8         32.4219   21.8083    2.1487 C.3       12 UNK         0.0333 
      9 C9         32.3428   23.0571    3.0161 C.ar      12 UNK        -0.0807 
     10 C10        33.1697   24.1551    2.7566 C.ar      12 UNK        -0.0894 
     11 C11        33.0540   25.3298    3.5103 C.ar      12 UNK        -0.0804 
     12 C12        32.1241   25.3763    4.5534 C.ar      12 UNK        -0.0824 
     13 C13        31.2965   24.2828    4.8310 C.ar      12 UNK        -0.0762 
     14 C14        31.4217   23.1208    4.0647 C.ar      12 UNK        -0.0782 
     15 C15        30.2640   24.3808    5.9524 C.3       12 UNK         0.0230 
     16 S16        28.6005   23.7609    5.5029 S.3       12 UNK        -0.2608 
     17 C17        28.1779   24.5520    3.9059 C.3       12 UNK        -0.0989 
     18 CA         28.6046   26.0301    3.7184 C.3       5 UNK         0.0716 
     19 N          28.7136   26.3780    2.3004 N.am      5 UNK        -0.4135 
     20 C          29.5943   27.2570    1.8011 C.2       4 UNK         0.5031 
     21 O          30.4643   27.8018    2.4738 O.2       4 UNK        -0.5229 
     22 CA         29.4797   27.6226    0.3097 C.3       4 UNK         0.0329 
     23 CB         30.5391   26.8853   -0.5237 C.3       4 UNK        -0.2001 
     24 N          28.1466   27.3711   -0.2447 N.am      4 UNK        -0.4303 
     25 C          27.0661   28.1028    0.0659 C.2       3 UNK         0.5044 
     26 O          27.1059   29.0882    0.8015 O.2       3 UNK        -0.5152 
     27 CA         25.7028   27.6261   -0.4679 C.3       3 UNK         0.0319 
     28 CB         25.3972   28.2857   -1.8212 C.3       3 UNK        -0.2001 
     29 N          25.5834   26.1703   -0.5971 N.am      3 UNK        -0.4354 
     30 C          25.7537   25.2808    0.3919 C.2       2 UNK         0.4964 
     31 O          26.0301   25.5971    1.5496 O.2       2 UNK        -0.5047 
     32 CA         25.6567   23.7861    0.0265 C.3       2 UNK         0.0288 
     33 CB         24.9649   23.5210   -1.3305 C.3       2 UNK        -0.2113 
     34 N          26.9621   23.1095    0.0598 N.am      2 UNK        -0.4145 
     35 C          28.0882   23.4900   -0.5677 C.2       1 UNK         0.5006 
     36 O          28.1949   24.5349   -1.2115 O.2       1 UNK        -0.5103 
     37 C          27.6845   27.0126    4.4657 C.2       5 UNK         0.5055 
     38 O          27.9177   27.2738    5.6457 O.2       5 UNK        -0.5220 
     39 N          26.6857   27.5819    3.7734 N.am      6 UNK        -0.4450 
     40 CA         25.8782   28.6951    4.2800 C.3       6 UNK         0.0367 
     41 CB         24.6656   28.9278    3.3645 C.3       6 UNK        -0.1929 
     42 C          26.7167   29.9777    4.4325 C.2       6 UNK         0.5070 
     43 O          26.6458   30.6323    5.4722 O.2       6 UNK        -0.5237 
     44 N          27.5349   30.2822    3.4169 N.am      7 UNK        -0.4739 
     45 CA         28.4811   31.3988    3.3921 C.3       7 UNK         0.0276 
     46 CB         28.4406   32.0452    1.9944 C.3       7 UNK        -0.1927 
     47 C          29.9002   30.9378    3.7763 C.2       7 UNK         0.5013 
     48 O          30.8619   31.3041    3.0968 O.2       7 UNK        -0.5193 
     49 N          30.0197   30.1544    4.8605 N.am      8 UNK        -0.4253 
     50 CA         31.2571   29.5078    5.3303 C.3       8 UNK         0.0242 
     51 CB         30.9687   28.7126    6.6137 C.3       8 UNK        -0.2000 
     52 C          32.4608   30.4397    5.5566 C.2       8 UNK         0.4948 
     53 O          33.5989   29.9890    5.4247 O.2       8 UNK        -0.5275 
     54 N          32.1968   31.7143    5.8763 N.am      9 UNK        -0.4246 
     55 CA         33.2090   32.7637    6.0204 C.3       9 UNK         0.0261 
     56 CB         32.5617   34.0049    6.6560 C.3       9 UNK        -0.1959 
     57 C          33.9029   33.1383    4.6960 C.2       9 UNK         0.5033 
     58 O          35.0424   33.6056    4.7345 O.2       9 UNK        -0.5390 
     59 N          33.2153   32.9379    3.5635 N.am      10 UNK        -0.4215 
     60 CA         33.7312   33.1806    2.2159 C.3       10 UNK         0.0240 
     61 CB         32.6869   33.9718    1.4097 C.3       10 UNK        -0.1982 
     62 C          34.0699   31.8635    1.5030 C.2       10 UNK         0.4970 
     63 O          35.0872   31.8011    0.8121 O.2       10 UNK        -0.4916 
     64 N          33.2127   30.8473    1.6728 N.am      11 UNK        -0.4279 
     65 CA         33.2741   29.5434    0.9971 C.3       11 UNK         0.1003 
     66 C          33.0645   29.6228   -0.5480 C.2       11 UNK         0.5709 
     67 N          32.3153   30.5998   -1.0474 N.am      11 UNK        -0.7358 
     68 O          33.5649   28.7965   -1.3068 O.2       11 UNK        -0.4999 
     69 C69        34.4978   28.6899    1.4451 C.3       12 UNK        -0.0954 
     70 S70        34.1172   26.9037    1.4424 S.3       12 UNK        -0.2268 
     71 C71        33.9167   26.5584    3.2225 C.3       12 UNK         0.0203 
     72 H72        28.8499   21.6414   -3.1908 H         1 UNK         0.0888 
     73 H73        27.7668   20.3152   -3.5721 H         1 UNK         0.0888 
     74 H74        27.1351   21.7368   -2.7513 H         1 UNK         0.0888 
     75 H75        29.0996   20.6228    0.3608 H         1 UNK         0.3017 
     76 H76        29.8551   22.6997   -1.4352 H         1 UNK         0.0873 
     77 H77        30.3689   23.9365    0.7828 H         1 UNK         0.0745 
     78 H78        29.7993   22.5077    1.6064 H         1 UNK         0.0745 
     79 H79        33.4499   21.4434    2.1360 H         1 UNK         0.0705 
     80 H80        31.8154   21.0031    2.5663 H         1 UNK         0.0705 
     81 H81        33.8825   24.1012    1.9453 H         1 UNK         0.1334 
     82 H82        32.0297   26.2795    5.1401 H         1 UNK         0.1417 
     83 H83        30.7814   22.2740    4.2713 H         1 UNK         0.1562 
     84 H84        30.1652   25.4093    6.3026 H         1 UNK         0.0748 
     85 H85        30.6264   23.8074    6.8064 H         1 UNK         0.0748 
     86 H86        27.1059   24.4333    3.7368 H         1 UNK         0.0940 
     87 H87        28.6550   23.9427    3.1383 H         1 UNK         0.0940 
     88 H88        29.5891   26.1741    4.1519 H         1 UNK         0.0703 
     89 H89        27.9841   26.0129    1.6995 H         1 UNK         0.3081 
     90 H90        29.6838   28.6930    0.2306 H         1 UNK         0.0719 
     91 H91        30.3640   25.8122   -0.5562 H         1 UNK         0.0809 
     92 H92        30.5605   27.2521   -1.5499 H         1 UNK         0.0809 
     93 H93        31.5358   27.0320   -0.1081 H         1 UNK         0.0809 
     94 H94        28.0364   26.5394   -0.8175 H         1 UNK         0.2990 
     95 H95        24.9434   27.9492    0.2467 H         1 UNK         0.0690 
     96 H96        26.1029   27.9723   -2.5918 H         1 UNK         0.0788 
     97 H97        25.4561   29.3727   -1.7474 H         1 UNK         0.0788 
     98 H98        24.3921   28.0407   -2.1651 H         1 UNK         0.0788 
     99 H99        25.3942   25.8132   -1.5226 H         1 UNK         0.2993 
    100 H100       25.0447   23.3281    0.8053 H         1 UNK         0.0949 
    101 H101       25.5506   23.8877   -2.1745 H         1 UNK         0.0767 
    102 H102       24.8090   22.4529   -1.4833 H         1 UNK         0.0767 
    103 H103       23.9819   23.9925   -1.3736 H         1 UNK         0.0767 
    104 H104       26.9881   22.2439    0.5807 H         1 UNK         0.3013 
    105 H105       26.5065   27.2677    2.8280 H         1 UNK         0.3121 
    106 H106       25.5056   28.4181    5.2687 H         1 UNK         0.0774 
    107 H107       24.0127   29.6975    3.7779 H         1 UNK         0.0815 
    108 H108       24.9614   29.2580    2.3691 H         1 UNK         0.0815 
    109 H109       24.0695   28.0216    3.2551 H         1 UNK         0.0815 
    110 H110       27.5027   29.7077    2.5778 H         1 UNK         0.2987 
    111 H111       28.1837   32.1580    4.1186 H         1 UNK         0.0949 
    112 H112       28.7786   31.3529    1.2219 H         1 UNK         0.0806 
    113 H113       27.4317   32.3665    1.7354 H         1 UNK         0.0806 
    114 H114       29.0820   32.9263    1.9488 H         1 UNK         0.0806 
    115 H115       29.1718   29.9075    5.3525 H         1 UNK         0.3010 
    116 H116       31.5598   28.8018    4.5564 H         1 UNK         0.0829 
    117 H117       31.8771   28.2514    7.0044 H         1 UNK         0.0813 
    118 H118       30.5614   29.3486    7.4004 H         1 UNK         0.0813 
    119 H119       30.2606   27.9072    6.4312 H         1 UNK         0.0813 
    120 H120       31.2313   31.9901    5.9805 H         1 UNK         0.3038 
    121 H121       33.9804   32.3943    6.6997 H         1 UNK         0.0769 
    122 H122       33.2984   34.7960    6.8036 H         1 UNK         0.0811 
    123 H123       32.1364   33.7755    7.6332 H         1 UNK         0.0811 
    124 H124       31.7675   34.4130    6.0294 H         1 UNK         0.0811 
    125 H125       32.3000   32.5008    3.6211 H         1 UNK         0.3204 
    126 H126       34.6445   33.7780    2.2595 H         1 UNK         0.0748 
    127 H127       33.0371   34.1591    0.3935 H         1 UNK         0.0771 
    128 H128       31.7382   33.4383    1.3370 H         1 UNK         0.0771 
    129 H129       32.4890   34.9413    1.8673 H         1 UNK         0.0771 
    130 H130       32.3732   31.0001    2.2288 H         1 UNK         0.2980 
    131 H131       32.3813   29.0375    1.3582 H         1 UNK         0.0545 
    132 H132       31.8917   31.2834   -0.4419 H         1 UNK         0.3459 
    133 H133       32.1781   30.6525   -2.0441 H         1 UNK         0.3459 
    134 H134       35.3619   28.8753    0.8050 H         1 UNK         0.0616 
    135 H135       34.8119   28.9720    2.4514 H         1 UNK         0.0616 
    136 H136       33.4724   27.4367    3.6938 H         1 UNK         0.0634 
    137 H137       34.8999   26.4231    3.6741 H         1 UNK         0.0634 
@<TRIPOS>BOND
     1    1    2 1    
     2    1   72 1    
     3    1   73 1    
     4    1   74 1    
     5    2    3 2    
     6    2    4 am   BACKBONE|DICT|INTERRES
     7    4    5 1    
     8    4   75 1    
     9    5    6 1    
    10    5   35 1    
    11    5   76 1    
    12    6    7 1    
    13    6   77 1    
    14    6   78 1    
    15    7    8 1    
    16    8    9 1    
    17    8   79 1    
    18    8   80 1    
    19    9   10 ar   
    20    9   14 ar   
    21   10   11 ar   
    22   10   81 1    
    23   11   12 ar   
    24   11   71 1    
    25   12   13 ar   
    26   12   82 1    
    27   13   14 ar   
    28   13   15 1    
    29   14   83 1    
    30   15   16 1    
    31   15   84 1    
    32   15   85 1    
    33   16   17 1    
    34   17   18 1    
    35   17   86 1    
    36   17   87 1    
    37   18   19 1    
    38   18   37 1    
    39   18   88 1    
    40   19   20 am   BACKBONE|DICT|INTERRES
    41   19   89 1    
    42   20   21 2    
    43   20   22 1    
    44   22   23 1    
    45   22   24 1    
    46   22   90 1    
    47   23   91 1    
    48   23   92 1    
    49   23   93 1    
    50   24   25 am   BACKBONE|DICT|INTERRES
    51   24   94 1    
    52   25   26 2    
    53   25   27 1    
    54   27   28 1    
    55   27   29 1    
    56   27   95 1    
    57   28   96 1    
    58   28   97 1    
    59   28   98 1    
    60   29   30 am   BACKBONE|DICT|INTERRES
    61   29   99 1    
    62   30   31 2    
    63   30   32 1    
    64   32   33 1    
    65   32   34 1    
    66   32  100 1    
    67   33  101 1    
    68   33  102 1    
    69   33  103 1    
    70   34   35 am   BACKBONE|DICT|INTERRES
    71   34  104 1    
    72   35   36 2    
    73   37   38 2    
    74   37   39 am   BACKBONE|DICT|INTERRES
    75   39   40 1    
    76   39  105 1    
    77   40   41 1    
    78   40   42 1    
    79   40  106 1    
    80   41  107 1    
    81   41  108 1    
    82   41  109 1    
    83   42   43 2    
    84   42   44 am   BACKBONE|DICT|INTERRES
    85   44   45 1    
    86   44  110 1    
    87   45   46 1    
    88   45   47 1    
    89   45  111 1    
    90   46  112 1    
    91   46  113 1    
    92   46  114 1    
    93   47   48 2    
    94   47   49 am   BACKBONE|DICT|INTERRES
    95   49   50 1    
    96   49  115 1    
    97   50   51 1    
    98   50   52 1    
    99   50  116 1    
   100   51  117 1    
   101   51  118 1    
   102   51  119 1    
   103   52   53 2    
   104   52   54 am   BACKBONE|DICT|INTERRES
   105   54   55 1    
   106   54  120 1    
   107   55   56 1    
   108   55   57 1    
   109   55  121 1    
   110   56  122 1    
   111   56  123 1    
   112   56  124 1    
   113   57   58 2    
   114   57   59 am   BACKBONE|DICT|INTERRES
   115   59   60 1    
   116   59  125 1    
   117   60   61 1    
   118   60   62 1    
   119   60  126 1    
   120   61  127 1    
   121   61  128 1    
   122   61  129 1    
   123   62   63 2    
   124   62   64 am   BACKBONE|DICT|INTERRES
   125   64   65 1    
   126   64  130 1    
   127   65   66 1    
   128   65   69 1    
   129   65  131 1    
   130   66   67 am   BACKBONE|DICT|INTERRES
   131   66   68 2    
   132   67  132 1    
   133   67  133 1    
   134   69   70 1    
   135   69  134 1    
   136   69  135 1    
   137   70   71 1    
   138   71  136 1    
   139   71  137 1    
@<TRIPOS>SUBSTRUCTURE
     1 UNK         1 GROUP             0       ****    0 ROOT    
