@<TRIPOS>MOLECULE
3R136
137   139    1
SMALL
USER_CHARGES


@<TRIPOS>ATOM
      1 CA         26.1094   24.0570    2.0186 C.3       0 UNK        -0.1979 
      2 C          26.7810   22.8812    1.3255 C.2       0 UNK         0.4864 
      3 O          26.3597   21.7383    1.5105 O.2       0 UNK        -0.5359 
      4 N          27.8282   23.1557    0.5428 N.am      1 UNK        -0.4318 
      5 CA         28.6251   22.1582   -0.1722 C.3       1 UNK         0.0824 
      6 C6         29.7152   21.4913    0.7179 C.3       12 UNK        -0.0944 
      7 S7         30.8512   22.6589    1.5487 S.3       12 UNK        -0.2672 
      8 C8         30.1770   22.6573    3.2352 C.3       12 UNK         0.0333 
      9 C9         30.8524   23.7101    4.0979 C.ar      12 UNK        -0.0807 
     10 C10        31.9877   23.3859    4.8449 C.ar      12 UNK        -0.0894 
     11 C11        32.6010   24.3445    5.6570 C.ar      12 UNK        -0.0804 
     12 C12        32.0618   25.6325    5.7293 C.ar      12 UNK        -0.0824 
     13 C13        30.9285   25.9700    4.9812 C.ar      12 UNK        -0.0762 
     14 C14        30.3361   25.0077    4.1568 C.ar      12 UNK        -0.0782 
     15 C15        30.3734   27.3847    5.0374 C.3       12 UNK         0.0230 
     16 S16        28.9369   27.5536    6.1489 S.3       12 UNK        -0.2608 
     17 C17        27.5290   27.2428    5.0280 C.3       12 UNK        -0.0989 
     18 CA         27.3041   28.3999    4.0181 C.3       5 UNK         0.0716 
     19 N          26.7946   27.9086    2.7367 N.am      5 UNK        -0.4135 
     20 C          26.8717   28.5990    1.5937 C.2       4 UNK         0.5031 
     21 O          27.3547   29.7288    1.5040 O.2       4 UNK        -0.5229 
     22 CA         26.3486   27.9119    0.3255 C.3       4 UNK         0.0329 
     23 CB         25.1877   28.7092   -0.2918 C.3       4 UNK        -0.2001 
     24 N          27.4388   27.8060   -0.6434 N.am      4 UNK        -0.4303 
     25 C          28.4305   26.9118   -0.5614 C.2       3 UNK         0.5044 
     26 O          28.4663   25.9907    0.2633 O.2       3 UNK        -0.5152 
     27 CA         29.5863   27.0853   -1.5544 C.3       3 UNK         0.0319 
     28 CB         30.5894   28.1370   -1.0519 C.3       3 UNK        -0.2001 
     29 N          30.2530   25.7966   -1.6729 N.am      3 UNK        -0.4354 
     30 C          30.6713   25.2212   -2.8047 C.2       2 UNK         0.4964 
     31 O          30.7175   25.7937   -3.8940 O.2       2 UNK        -0.5047 
     32 CA         31.0818   23.7386   -2.7090 C.3       2 UNK         0.0288 
     33 CB         32.6077   23.6093   -2.5744 C.3       2 UNK        -0.2113 
     34 N          30.4386   23.0294   -1.5956 N.am      2 UNK        -0.4145 
     35 C          29.1229   22.7956   -1.4812 C.2       1 UNK         0.5006 
     36 O          28.3023   23.0863   -2.3540 O.2       1 UNK        -0.5103 
     37 C          26.4231   29.5346    4.5774 C.2       5 UNK         0.5055 
     38 O          25.2280   29.5914    4.2772 O.2       5 UNK        -0.5220 
     39 N          27.0486   30.4383    5.3428 N.am      6 UNK        -0.4450 
     40 CA         26.5291   31.6960    5.9011 C.3       6 UNK         0.0367 
     41 CB         25.2532   31.4908    6.7416 C.3       6 UNK        -0.1929 
     42 C          26.3462   32.8035    4.8471 C.2       6 UNK         0.5070 
     43 O          26.6767   33.9553    5.1301 O.2       6 UNK        -0.5237 
     44 N          25.8684   32.4474    3.6470 N.am      7 UNK        -0.4739 
     45 CA         25.8541   33.3145    2.4643 C.3       7 UNK         0.0276 
     46 CB         24.9567   32.6881    1.3848 C.3       7 UNK        -0.1927 
     47 C          27.2730   33.5598    1.9175 C.2       7 UNK         0.5013 
     48 O          27.5832   34.6740    1.4941 O.2       7 UNK        -0.5193 
     49 N          28.1046   32.5160    1.9660 N.am      8 UNK        -0.4253 
     50 CA         29.5254   32.4987    1.6427 C.3       8 UNK         0.0242 
     51 CB         29.7009   32.1403    0.1536 C.3       8 UNK        -0.2000 
     52 C          30.2137   31.4982    2.5889 C.2       8 UNK         0.4948 
     53 O          29.6167   31.0911    3.5910 O.2       8 UNK        -0.5275 
     54 N          31.4547   31.1146    2.2704 N.am      9 UNK        -0.4246 
     55 CA         32.2140   30.1030    2.9986 C.3       9 UNK         0.0261 
     56 CB         33.1847   30.7763    3.9831 C.3       9 UNK        -0.1959 
     57 C          32.9599   29.2222    1.9938 C.2       9 UNK         0.5033 
     58 O          33.6373   29.7582    1.1140 O.2       9 UNK        -0.5390 
     59 N          32.8249   27.8981    2.1444 N.am      10 UNK        -0.4215 
     60 CA         33.5697   26.9024    1.3716 C.3       10 UNK         0.0240 
     61 CB         32.7629   25.5975    1.2894 C.3       10 UNK        -0.1982 
     62 C          34.9482   26.6553    2.0016 C.2       10 UNK         0.4970 
     63 O          35.9566   26.7031    1.2966 O.2       10 UNK        -0.4916 
     64 N          34.9609   26.4182    3.3204 N.am      11 UNK        -0.4279 
     65 CA         36.1714   26.3239    4.1451 C.3       11 UNK         0.1003 
     66 C          36.8885   27.6952    4.2788 C.2       11 UNK         0.5709 
     67 N          38.2140   27.7028    4.3121 N.am      11 UNK        -0.7358 
     68 O          36.2544   28.7423    4.3951 O.2       11 UNK        -0.4999 
     69 C69        35.8560   25.7345    5.5441 C.3       12 UNK        -0.0954 
     70 S70        35.3452   23.9848    5.4637 S.3       12 UNK        -0.2268 
     71 C71        33.8294   23.9699    6.4722 C.3       12 UNK         0.0203 
     72 H72        26.7718   24.9200    2.0638 H         1 UNK         0.0888 
     73 H73        25.2028   24.3409    1.4851 H         1 UNK         0.0888 
     74 H74        25.8382   23.7895    3.0397 H         1 UNK         0.0888 
     75 H75        28.1085   24.1250    0.4050 H         1 UNK         0.3017 
     76 H76        27.9532   21.3609   -0.4982 H         1 UNK         0.0873 
     77 H77        29.2280   20.8775    1.4772 H         1 UNK         0.0745 
     78 H78        30.3089   20.7892    0.1296 H         1 UNK         0.0745 
     79 H79        29.1027   22.8411    3.2024 H         1 UNK         0.0705 
     80 H80        30.3068   21.6674    3.6755 H         1 UNK         0.0705 
     81 H81        32.3969   22.3860    4.7933 H         1 UNK         0.1334 
     82 H82        32.5255   26.3721    6.3681 H         1 UNK         0.1417 
     83 H83        29.4749   25.2628    3.5558 H         1 UNK         0.1562 
     84 H84        30.1183   27.7062    4.0287 H         1 UNK         0.0748 
     85 H85        31.1457   28.0693    5.3912 H         1 UNK         0.0748 
     86 H86        26.6335   27.0578    5.6250 H         1 UNK         0.0940 
     87 H87        27.7224   26.3045    4.5094 H         1 UNK         0.0940 
     88 H88        28.2685   28.8527    3.7887 H         1 UNK         0.0703 
     89 H89        26.3251   27.0170    2.7462 H         1 UNK         0.3081 
     90 H90        25.9869   26.9109    0.5698 H         1 UNK         0.0719 
     91 H91        25.4943   29.7155   -0.5804 H         1 UNK         0.0809 
     92 H92        24.7927   28.2122   -1.1780 H         1 UNK         0.0809 
     93 H93        24.3649   28.8110    0.4173 H         1 UNK         0.0809 
     94 H94        27.5077   28.5504   -1.3220 H         1 UNK         0.2990 
     95 H95        29.1788   27.3900   -2.5208 H         1 UNK         0.0690 
     96 H96        30.1365   29.1276   -1.0264 H         1 UNK         0.0788 
     97 H97        31.4628   28.1969   -1.7015 H         1 UNK         0.0788 
     98 H98        30.9376   27.9122   -0.0439 H         1 UNK         0.0788 
     99 H99        30.1974   25.2317   -0.8359 H         1 UNK         0.2993 
    100 H100       30.7731   23.2546   -3.6381 H         1 UNK         0.0949 
    101 H101       32.9197   22.5647   -2.5769 H         1 UNK         0.0767 
    102 H102       33.1154   24.0998   -3.4063 H         1 UNK         0.0767 
    103 H103       32.9725   24.0675   -1.6546 H         1 UNK         0.0767 
    104 H104       31.0273   22.7754   -0.8120 H         1 UNK         0.3013 
    105 H105       28.0473   30.3163    5.4591 H         1 UNK         0.3121 
    106 H106       27.3075   32.0461    6.5811 H         1 UNK         0.0774 
    107 H107       24.9852   32.4101    7.2637 H         1 UNK         0.0815 
    108 H108       24.3960   31.2108    6.1291 H         1 UNK         0.0815 
    109 H109       25.3949   30.7181    7.4970 H         1 UNK         0.0815 
    110 H110       25.5864   31.4809    3.5230 H         1 UNK         0.2987 
    111 H111       25.4322   34.2812    2.7483 H         1 UNK         0.0949 
    112 H112       25.3218   31.7081    1.0750 H         1 UNK         0.0806 
    113 H113       23.9333   32.5677    1.7404 H         1 UNK         0.0806 
    114 H114       24.9190   33.3186    0.4954 H         1 UNK         0.0806 
    115 H115       27.7573   31.6282    2.3152 H         1 UNK         0.3010 
    116 H116       29.9559   33.4831    1.8365 H         1 UNK         0.0829 
    117 H117       29.1661   32.8438   -0.4848 H         1 UNK         0.0813 
    118 H118       30.7470   32.1681   -0.1518 H         1 UNK         0.0813 
    119 H119       29.3153   31.1432   -0.0605 H         1 UNK         0.0813 
    120 H120       31.8878   31.4509    1.4202 H         1 UNK         0.3038 
    121 H121       31.5311   29.4749    3.5670 H         1 UNK         0.0769 
    122 H122       33.7588   30.0317    4.5362 H         1 UNK         0.0811 
    123 H123       32.6495   31.3826    4.7141 H         1 UNK         0.0811 
    124 H124       33.8977   31.4219    3.4688 H         1 UNK         0.0811 
    125 H125       32.2334   27.5454    2.8805 H         1 UNK         0.3204 
    126 H126       33.7177   27.2716    0.3540 H         1 UNK         0.0748 
    127 H127       33.2787   24.8600    0.6738 H         1 UNK         0.0771 
    128 H128       32.6147   25.1473    2.2710 H         1 UNK         0.0771 
    129 H129       31.7804   25.7597    0.8475 H         1 UNK         0.0771 
    130 H130       34.0885   26.3762    3.8215 H         1 UNK         0.2980 
    131 H131       36.8574   25.6421    3.6378 H         1 UNK         0.0545 
    132 H132       38.6952   28.5826    4.4147 H         1 UNK         0.3459 
    133 H133       38.7436   26.8486    4.2317 H         1 UNK         0.3459 
    134 H134       36.7387   25.7753    6.1851 H         1 UNK         0.0616 
    135 H135       35.0906   26.3290    6.0455 H         1 UNK         0.0616 
    136 H136       33.6960   22.9667    6.8797 H         1 UNK         0.0634 
    137 H137       33.9465   24.6300    7.3331 H         1 UNK         0.0634 
@<TRIPOS>BOND
     1    1    2 1    
     2    1   72 1    
     3    1   73 1    
     4    1   74 1    
     5    2    3 2    
     6    2    4 am   BACKBONE|DICT|INTERRES
     7    4    5 1    
     8    4   75 1    
     9    5    6 1    
    10    5   35 1    
    11    5   76 1    
    12    6    7 1    
    13    6   77 1    
    14    6   78 1    
    15    7    8 1    
    16    8    9 1    
    17    8   79 1    
    18    8   80 1    
    19    9   10 ar   
    20    9   14 ar   
    21   10   11 ar   
    22   10   81 1    
    23   11   12 ar   
    24   11   71 1    
    25   12   13 ar   
    26   12   82 1    
    27   13   14 ar   
    28   13   15 1    
    29   14   83 1    
    30   15   16 1    
    31   15   84 1    
    32   15   85 1    
    33   16   17 1    
    34   17   18 1    
    35   17   86 1    
    36   17   87 1    
    37   18   19 1    
    38   18   37 1    
    39   18   88 1    
    40   19   20 am   BACKBONE|DICT|INTERRES
    41   19   89 1    
    42   20   21 2    
    43   20   22 1    
    44   22   23 1    
    45   22   24 1    
    46   22   90 1    
    47   23   91 1    
    48   23   92 1    
    49   23   93 1    
    50   24   25 am   BACKBONE|DICT|INTERRES
    51   24   94 1    
    52   25   26 2    
    53   25   27 1    
    54   27   28 1    
    55   27   29 1    
    56   27   95 1    
    57   28   96 1    
    58   28   97 1    
    59   28   98 1    
    60   29   30 am   BACKBONE|DICT|INTERRES
    61   29   99 1    
    62   30   31 2    
    63   30   32 1    
    64   32   33 1    
    65   32   34 1    
    66   32  100 1    
    67   33  101 1    
    68   33  102 1    
    69   33  103 1    
    70   34   35 am   BACKBONE|DICT|INTERRES
    71   34  104 1    
    72   35   36 2    
    73   37   38 2    
    74   37   39 am   BACKBONE|DICT|INTERRES
    75   39   40 1    
    76   39  105 1    
    77   40   41 1    
    78   40   42 1    
    79   40  106 1    
    80   41  107 1    
    81   41  108 1    
    82   41  109 1    
    83   42   43 2    
    84   42   44 am   BACKBONE|DICT|INTERRES
    85   44   45 1    
    86   44  110 1    
    87   45   46 1    
    88   45   47 1    
    89   45  111 1    
    90   46  112 1    
    91   46  113 1    
    92   46  114 1    
    93   47   48 2    
    94   47   49 am   BACKBONE|DICT|INTERRES
    95   49   50 1    
    96   49  115 1    
    97   50   51 1    
    98   50   52 1    
    99   50  116 1    
   100   51  117 1    
   101   51  118 1    
   102   51  119 1    
   103   52   53 2    
   104   52   54 am   BACKBONE|DICT|INTERRES
   105   54   55 1    
   106   54  120 1    
   107   55   56 1    
   108   55   57 1    
   109   55  121 1    
   110   56  122 1    
   111   56  123 1    
   112   56  124 1    
   113   57   58 2    
   114   57   59 am   BACKBONE|DICT|INTERRES
   115   59   60 1    
   116   59  125 1    
   117   60   61 1    
   118   60   62 1    
   119   60  126 1    
   120   61  127 1    
   121   61  128 1    
   122   61  129 1    
   123   62   63 2    
   124   62   64 am   BACKBONE|DICT|INTERRES
   125   64   65 1    
   126   64  130 1    
   127   65   66 1    
   128   65   69 1    
   129   65  131 1    
   130   66   67 am   BACKBONE|DICT|INTERRES
   131   66   68 2    
   132   67  132 1    
   133   67  133 1    
   134   69   70 1    
   135   69  134 1    
   136   69  135 1    
   137   70   71 1    
   138   71  136 1    
   139   71  137 1    
@<TRIPOS>SUBSTRUCTURE
     1 UNK         1 GROUP             0       ****    0 ROOT    
