@<TRIPOS>MOLECULE
3R136
137   139    1
SMALL
USER_CHARGES


@<TRIPOS>ATOM
      1 CA         27.0459   23.4163   -2.2750 C.3       0 UNK        -0.1979 
      2 C          28.2797   23.3491   -1.3872 C.2       0 UNK         0.4864 
      3 O          29.3887   23.1713   -1.8910 O.2       0 UNK        -0.5359 
      4 N          28.0921   23.4924   -0.0726 N.am      1 UNK        -0.4318 
      5 CA         29.1396   23.5484    0.9413 C.3       1 UNK         0.0824 
      6 C6         29.6979   22.1370    1.2797 C.3       12 UNK        -0.0944 
      7 S7         30.8903   22.0339    2.6636 S.3       12 UNK        -0.2672 
      8 C8         32.4585   22.5663    1.8998 C.3       12 UNK         0.0333 
      9 C9         32.5563   24.0835    1.8123 C.ar      12 UNK        -0.0807 
     10 C10        32.6740   24.8469    2.9800 C.ar      12 UNK        -0.0894 
     11 C11        32.7146   26.2421    2.9106 C.ar      12 UNK        -0.0804 
     12 C12        32.6501   26.8723    1.6665 C.ar      12 UNK        -0.0824 
     13 C13        32.5544   26.1224    0.4930 C.ar      12 UNK        -0.0762 
     14 C14        32.5212   24.7263    0.5698 C.ar      12 UNK        -0.0782 
     15 C15        32.4841   26.8304   -0.8525 C.3       12 UNK         0.0230 
     16 S16        30.8911   26.5701   -1.6932 S.3       12 UNK        -0.2608 
     17 C17        29.6993   27.2086   -0.4691 C.3       12 UNK        -0.0989 
     18 CA         28.2858   27.3668   -1.0863 C.3       5 UNK         0.0716 
     19 N          27.2298   27.1222   -0.0996 N.am      5 UNK        -0.4135 
     20 C          25.9626   26.8188   -0.4223 C.2       4 UNK         0.5031 
     21 O          25.5895   26.6357   -1.5823 O.2       4 UNK        -0.5229 
     22 CA         24.9279   26.6655    0.7095 C.3       4 UNK         0.0329 
     23 CB         24.3370   25.2445    0.7267 C.3       4 UNK        -0.2001 
     24 N          25.4686   26.9747    2.0343 N.am      4 UNK        -0.4303 
     25 C          25.4837   28.1986    2.5833 C.2       3 UNK         0.5044 
     26 O          24.9910   29.1920    2.0490 O.2       3 UNK        -0.5152 
     27 CA         26.1659   28.3550    3.9579 C.3       3 UNK         0.0319 
     28 CB         25.1131   28.4326    5.0750 C.3       3 UNK        -0.2001 
     29 N          27.1301   27.2996    4.2832 N.am      3 UNK        -0.4354 
     30 C          28.2423   27.0329    3.5866 C.2       2 UNK         0.4964 
     31 O          28.5768   27.6589    2.5795 O.2       2 UNK        -0.5047 
     32 CA         29.1066   25.8457    4.0472 C.3       2 UNK         0.0288 
     33 CB         28.5237   25.0399    5.2303 C.3       2 UNK        -0.2113 
     34 N          29.4230   24.9627    2.9214 N.am      2 UNK        -0.4145 
     35 C          28.5487   24.3207    2.1347 C.2       1 UNK         0.5006 
     36 O          27.3234   24.3540    2.2940 O.2       1 UNK        -0.5103 
     37 C          28.1184   28.7498   -1.7488 C.2       5 UNK         0.5055 
     38 O          27.4945   29.6424   -1.1705 O.2       5 UNK        -0.5220 
     39 N          28.7229   28.9177   -2.9336 N.am      6 UNK        -0.4450 
     40 CA         28.8133   30.2010   -3.6398 C.3       6 UNK         0.0367 
     41 CB         29.3466   29.9711   -5.0629 C.3       6 UNK        -0.1929 
     42 C          29.6895   31.2205   -2.8888 C.2       6 UNK         0.5070 
     43 O          29.3626   32.4070   -2.8663 O.2       6 UNK        -0.5237 
     44 N          30.7599   30.7271   -2.2541 N.am      7 UNK        -0.4739 
     45 CA         31.6044   31.4663   -1.3189 C.3       7 UNK         0.0276 
     46 CB         33.0827   31.2020   -1.6616 C.3       7 UNK        -0.1927 
     47 C          31.2329   31.0132    0.1005 C.2       7 UNK         0.5013 
     48 O          31.9899   30.2712    0.7276 O.2       7 UNK        -0.5193 
     49 N          30.0294   31.4018    0.5421 N.am      8 UNK        -0.4253 
     50 CA         29.4331   30.9996    1.8170 C.3       8 UNK         0.0242 
     51 CB         27.9852   31.5117    1.8880 C.3       8 UNK        -0.2000 
     52 C          30.2362   31.4859    3.0345 C.2       8 UNK         0.4948 
     53 O          30.6137   32.6591    3.0871 O.2       8 UNK        -0.5275 
     54 N          30.4410   30.5832    3.9975 N.am      9 UNK        -0.4246 
     55 CA         31.1370   30.7854    5.2665 C.3       9 UNK         0.0261 
     56 CB         32.6452   31.0204    5.0317 C.3       9 UNK        -0.1959 
     57 C          30.8915   29.5427    6.1349 C.2       9 UNK         0.5033 
     58 O          30.3026   28.5723    5.6514 O.2       9 UNK        -0.5390 
     59 N          31.3473   29.5781    7.3930 N.am      10 UNK        -0.4215 
     60 CA         31.2831   28.4335    8.3078 C.3       10 UNK         0.0240 
     61 CB         31.4230   28.9208    9.7599 C.3       10 UNK        -0.1982 
     62 C          32.3418   27.3626    7.9877 C.2       10 UNK         0.4970 
     63 O          32.0197   26.1747    8.0030 O.2       10 UNK        -0.4916 
     64 N          33.5783   27.8079    7.7165 N.am      11 UNK        -0.4279 
     65 CA         34.7695   26.9790    7.4375 C.3       11 UNK         0.1003 
     66 C          35.2144   26.0514    8.6121 C.2       11 UNK         0.5709 
     67 N          34.8215   26.3239    9.8511 N.am      11 UNK        -0.7358 
     68 O          35.9545   25.0910    8.4108 O.2       11 UNK        -0.4999 
     69 C69        34.6981   26.2369    6.0700 C.3       12 UNK        -0.0954 
     70 S70        34.5112   27.3940    4.6718 S.3       12 UNK        -0.2268 
     71 C71        32.7936   27.0861    4.1702 C.3       12 UNK         0.0203 
     72 H72        26.9440   22.4957   -2.8489 H         1 UNK         0.0888 
     73 H73        26.1335   23.5592   -1.6958 H         1 UNK         0.0888 
     74 H74        27.1333   24.2480   -2.9738 H         1 UNK         0.0888 
     75 H75        27.1679   23.6553    0.3087 H         1 UNK         0.3017 
     76 H76        29.9458   24.1553    0.5333 H         1 UNK         0.0873 
     77 H77        30.1664   21.7049    0.3942 H         1 UNK         0.0745 
     78 H78        28.8693   21.4706    1.5257 H         1 UNK         0.0745 
     79 H79        32.5667   22.1034    0.9176 H         1 UNK         0.0705 
     80 H80        33.2863   22.1945    2.5053 H         1 UNK         0.0705 
     81 H81        32.7123   24.3553    3.9431 H         1 UNK         0.1334 
     82 H82        32.6741   27.9523    1.6145 H         1 UNK         0.1417 
     83 H83        32.4359   24.1458   -0.3395 H         1 UNK         0.1562 
     84 H84        33.2868   26.4626   -1.4930 H         1 UNK         0.0748 
     85 H85        32.6509   27.9024   -0.7371 H         1 UNK         0.0748 
     86 H86        30.0647   28.1393   -0.0294 H         1 UNK         0.0940 
     87 H87        29.6767   26.4943    0.3525 H         1 UNK         0.0940 
     88 H88        28.1616   26.6112   -1.8657 H         1 UNK         0.0703 
     89 H89        27.4659   27.3174    0.8670 H         1 UNK         0.3081 
     90 H90        24.1127   27.3568    0.4856 H         1 UNK         0.0719 
     91 H91        23.8697   25.0028   -0.2289 H         1 UNK         0.0809 
     92 H92        25.0968   24.4874    0.9162 H         1 UNK         0.0809 
     93 H93        23.5682   25.1454    1.4931 H         1 UNK         0.0809 
     94 H94        25.9189   26.2122    2.5260 H         1 UNK         0.2990 
     95 H95        26.7131   29.2989    3.9405 H         1 UNK         0.0690 
     96 H96        25.5733   28.6401    6.0414 H         1 UNK         0.0788 
     97 H97        24.5482   27.5037    5.1623 H         1 UNK         0.0788 
     98 H98        24.3969   29.2327    4.8819 H         1 UNK         0.0788 
     99 H99        26.9234   26.7267    5.0886 H         1 UNK         0.2993 
    100 H100       30.0497   26.2764    4.3766 H         1 UNK         0.0949 
    101 H101       27.5512   24.6046    4.9972 H         1 UNK         0.0767 
    102 H102       29.1902   24.2224    5.5061 H         1 UNK         0.0767 
    103 H103       28.4113   25.6659    6.1167 H         1 UNK         0.0767 
    104 H104       30.4070   24.8868    2.6965 H         1 UNK         0.3013 
    105 H105       29.2216   28.1369   -3.3379 H         1 UNK         0.3121 
    106 H106       27.8068   30.6189   -3.7139 H         1 UNK         0.0774 
    107 H107       29.4042   30.9116   -5.6128 H         1 UNK         0.0815 
    108 H108       30.3469   29.5361   -5.0569 H         1 UNK         0.0815 
    109 H109       28.6938   29.3066   -5.6291 H         1 UNK         0.0815 
    110 H110       30.9246   29.7320   -2.3077 H         1 UNK         0.2987 
    111 H111       31.4254   32.5417   -1.3892 H         1 UNK         0.0949 
    112 H112       33.3259   31.5628   -2.6610 H         1 UNK         0.0806 
    113 H113       33.7420   31.7168   -0.9615 H         1 UNK         0.0806 
    114 H114       33.3290   30.1405   -1.6215 H         1 UNK         0.0806 
    115 H115       29.4668   31.9931   -0.0529 H         1 UNK         0.3010 
    116 H116       29.4130   29.9098    1.8254 H         1 UNK         0.0829 
    117 H117       27.9359   32.5966    1.7880 H         1 UNK         0.0813 
    118 H118       27.5238   31.2533    2.8413 H         1 UNK         0.0813 
    119 H119       27.3680   31.0713    1.1049 H         1 UNK         0.0813 
    120 H120       30.0610   29.6466    3.9039 H         1 UNK         0.3038 
    121 H121       30.7008   31.6488    5.7725 H         1 UNK         0.0769 
    122 H122       33.1870   31.1294    5.9713 H         1 UNK         0.0811 
    123 H123       32.8232   31.9317    4.4610 H         1 UNK         0.0811 
    124 H124       33.1037   30.1974    4.4841 H         1 UNK         0.0811 
    125 H125       31.7950   30.4177    7.7321 H         1 UNK         0.3204 
    126 H126       30.3010   27.9653    8.2076 H         1 UNK         0.0748 
    127 H127       31.3664   28.0847   10.4586 H         1 UNK         0.0771 
    128 H128       32.3733   29.4272    9.9326 H         1 UNK         0.0771 
    129 H129       30.6226   29.6130   10.0225 H         1 UNK         0.0771 
    130 H130       33.7438   28.8025    7.7358 H         1 UNK         0.2980 
    131 H131       35.5896   27.6933    7.3574 H         1 UNK         0.0545 
    132 H132       34.2291   27.1157   10.0395 H         1 UNK         0.3459 
    133 H133       35.1229   25.7268   10.6051 H         1 UNK         0.3459 
    134 H134       33.8981   25.4956    6.0691 H         1 UNK         0.0616 
    135 H135       35.6191   25.6806    5.8883 H         1 UNK         0.0616 
    136 H136       32.2360   26.6218    4.9834 H         1 UNK         0.0634 
    137 H137       32.3123   28.0454    3.9842 H         1 UNK         0.0634 
@<TRIPOS>BOND
     1    1    2 1    
     2    1   72 1    
     3    1   73 1    
     4    1   74 1    
     5    2    3 2    
     6    2    4 am   BACKBONE|DICT|INTERRES
     7    4    5 1    
     8    4   75 1    
     9    5    6 1    
    10    5   35 1    
    11    5   76 1    
    12    6    7 1    
    13    6   77 1    
    14    6   78 1    
    15    7    8 1    
    16    8    9 1    
    17    8   79 1    
    18    8   80 1    
    19    9   10 ar   
    20    9   14 ar   
    21   10   11 ar   
    22   10   81 1    
    23   11   12 ar   
    24   11   71 1    
    25   12   13 ar   
    26   12   82 1    
    27   13   14 ar   
    28   13   15 1    
    29   14   83 1    
    30   15   16 1    
    31   15   84 1    
    32   15   85 1    
    33   16   17 1    
    34   17   18 1    
    35   17   86 1    
    36   17   87 1    
    37   18   19 1    
    38   18   37 1    
    39   18   88 1    
    40   19   20 am   BACKBONE|DICT|INTERRES
    41   19   89 1    
    42   20   21 2    
    43   20   22 1    
    44   22   23 1    
    45   22   24 1    
    46   22   90 1    
    47   23   91 1    
    48   23   92 1    
    49   23   93 1    
    50   24   25 am   BACKBONE|DICT|INTERRES
    51   24   94 1    
    52   25   26 2    
    53   25   27 1    
    54   27   28 1    
    55   27   29 1    
    56   27   95 1    
    57   28   96 1    
    58   28   97 1    
    59   28   98 1    
    60   29   30 am   BACKBONE|DICT|INTERRES
    61   29   99 1    
    62   30   31 2    
    63   30   32 1    
    64   32   33 1    
    65   32   34 1    
    66   32  100 1    
    67   33  101 1    
    68   33  102 1    
    69   33  103 1    
    70   34   35 am   BACKBONE|DICT|INTERRES
    71   34  104 1    
    72   35   36 2    
    73   37   38 2    
    74   37   39 am   BACKBONE|DICT|INTERRES
    75   39   40 1    
    76   39  105 1    
    77   40   41 1    
    78   40   42 1    
    79   40  106 1    
    80   41  107 1    
    81   41  108 1    
    82   41  109 1    
    83   42   43 2    
    84   42   44 am   BACKBONE|DICT|INTERRES
    85   44   45 1    
    86   44  110 1    
    87   45   46 1    
    88   45   47 1    
    89   45  111 1    
    90   46  112 1    
    91   46  113 1    
    92   46  114 1    
    93   47   48 2    
    94   47   49 am   BACKBONE|DICT|INTERRES
    95   49   50 1    
    96   49  115 1    
    97   50   51 1    
    98   50   52 1    
    99   50  116 1    
   100   51  117 1    
   101   51  118 1    
   102   51  119 1    
   103   52   53 2    
   104   52   54 am   BACKBONE|DICT|INTERRES
   105   54   55 1    
   106   54  120 1    
   107   55   56 1    
   108   55   57 1    
   109   55  121 1    
   110   56  122 1    
   111   56  123 1    
   112   56  124 1    
   113   57   58 2    
   114   57   59 am   BACKBONE|DICT|INTERRES
   115   59   60 1    
   116   59  125 1    
   117   60   61 1    
   118   60   62 1    
   119   60  126 1    
   120   61  127 1    
   121   61  128 1    
   122   61  129 1    
   123   62   63 2    
   124   62   64 am   BACKBONE|DICT|INTERRES
   125   64   65 1    
   126   64  130 1    
   127   65   66 1    
   128   65   69 1    
   129   65  131 1    
   130   66   67 am   BACKBONE|DICT|INTERRES
   131   66   68 2    
   132   67  132 1    
   133   67  133 1    
   134   69   70 1    
   135   69  134 1    
   136   69  135 1    
   137   70   71 1    
   138   71  136 1    
   139   71  137 1    
@<TRIPOS>SUBSTRUCTURE
     1 UNK         1 GROUP             0       ****    0 ROOT    
