@<TRIPOS>MOLECULE
3R136
137   139    1
SMALL
USER_CHARGES


@<TRIPOS>ATOM
      1 CA         29.1184   20.4775    1.2769 C.3       0 UNK        -0.1979 
      2 C          28.8609   21.9346    0.9255 C.2       0 UNK         0.4864 
      3 O          27.7769   22.4452    1.2090 O.2       0 UNK        -0.5359 
      4 N          29.8424   22.5970    0.2936 N.am      1 UNK        -0.4318 
      5 CA         29.8531   24.0255   -0.0702 C.3       1 UNK         0.0824 
      6 C6         30.0404   24.9557    1.1558 C.3       12 UNK        -0.0944 
      7 S7         31.5966   24.5982    2.0399 S.3       12 UNK        -0.2672 
      8 C8         30.9899   24.1541    3.6979 C.3       12 UNK         0.0333 
      9 C9         30.3995   25.3572    4.4189 C.ar      12 UNK        -0.0807 
     10 C10        31.2226   26.4284    4.7787 C.ar      12 UNK        -0.0894 
     11 C11        30.6892   27.5503    5.4175 C.ar      12 UNK        -0.0804 
     12 C12        29.3233   27.5906    5.7089 C.ar      12 UNK        -0.0824 
     13 C13        28.4909   26.5200    5.3672 C.ar      12 UNK        -0.0762 
     14 C14        29.0352   25.4040    4.7232 C.ar      12 UNK        -0.0782 
     15 C15        27.0068   26.5712    5.7089 C.3       12 UNK         0.0230 
     16 S16        25.9302   26.4905    4.2402 S.3       12 UNK        -0.2608 
     17 C17        26.4834   27.9284    3.2590 C.3       12 UNK        -0.0989 
     18 CA         26.8829   27.5041    1.8186 C.3       5 UNK         0.0716 
     19 N          25.7847   26.9181    1.0394 N.am      5 UNK        -0.4135 
     20 C          24.6214   27.5057    0.7168 C.2       4 UNK         0.5031 
     21 O          24.2963   28.6364    1.0817 O.2       4 UNK        -0.5229 
     22 CA         23.6483   26.7241   -0.1878 C.3       4 UNK         0.0329 
     23 CB         23.4891   27.4347   -1.5431 C.3       4 UNK        -0.2001 
     24 N          24.0521   25.3412   -0.4393 N.am      4 UNK        -0.4303 
     25 C          23.9688   24.3166    0.4164 C.2       3 UNK         0.5044 
     26 O          23.4761   24.4082    1.5404 O.2       3 UNK        -0.5152 
     27 CA         24.5610   22.9678   -0.0399 C.3       3 UNK         0.0319 
     28 CB         23.4744   22.0592   -0.6474 C.3       3 UNK        -0.2001 
     29 N          25.7355   23.0772   -0.9237 N.am      3 UNK        -0.4354 
     30 C          25.8082   23.5507   -2.1803 C.2       2 UNK         0.4964 
     31 O          24.8279   23.9607   -2.8029 O.2       2 UNK        -0.5047 
     32 CA         27.1963   23.6166   -2.8519 C.3       2 UNK         0.0288 
     33 CB         27.3341   24.8426   -3.7815 C.3       2 UNK        -0.2113 
     34 N          28.3246   23.5491   -1.9150 N.am      2 UNK        -0.4145 
     35 C          28.6447   24.4242   -0.9481 C.2       1 UNK         0.5006 
     36 O          28.0181   25.4636   -0.7190 O.2       1 UNK        -0.5103 
     37 C          27.5552   28.6268    1.0052 C.2       5 UNK         0.5055 
     38 O          27.6209   29.7750    1.4474 O.2       5 UNK        -0.5220 
     39 N          28.0249   28.2610   -0.1962 N.am      6 UNK        -0.4450 
     40 CA         28.6573   29.1550   -1.1709 C.3       6 UNK         0.0367 
     41 CB         28.7039   28.4443   -2.5334 C.3       6 UNK        -0.1929 
     42 C          30.0626   29.6400   -0.7665 C.2       6 UNK         0.5070 
     43 O          30.5659   30.5917   -1.3658 O.2       6 UNK        -0.5237 
     44 N          30.6800   28.9885    0.2276 N.am      7 UNK        -0.4739 
     45 CA         31.9818   29.3383    0.7947 C.3       7 UNK         0.0276 
     46 CB         32.5376   28.1195    1.5520 C.3       7 UNK        -0.1927 
     47 C          31.8852   30.5855    1.6921 C.2       7 UNK         0.5013 
     48 O          31.9199   30.4701    2.9182 O.2       7 UNK        -0.5193 
     49 N          31.7629   31.7623    1.0658 N.am      8 UNK        -0.4253 
     50 CA         31.7342   33.0790    1.7105 C.3       8 UNK         0.0242 
     51 CB         31.0944   34.0911    0.7417 C.3       8 UNK        -0.2000 
     52 C          33.1377   33.5125    2.1840 C.2       8 UNK         0.4948 
     53 O          33.6832   34.5034    1.6939 O.2       8 UNK        -0.5275 
     54 N          33.7037   32.7387    3.1128 N.am      9 UNK        -0.4246 
     55 CA         35.0258   32.8898    3.7126 C.3       9 UNK         0.0261 
     56 CB         36.1163   32.4410    2.7138 C.3       9 UNK        -0.1959 
     57 C          35.0406   32.0817    5.0215 C.2       9 UNK         0.5033 
     58 O          33.9724   31.7840    5.5636 O.2       9 UNK        -0.5390 
     59 N          36.2366   31.7267    5.5105 N.am      10 UNK        -0.4215 
     60 CA         36.4229   30.8047    6.6337 C.3       10 UNK         0.0240 
     61 CB         37.8982   30.8134    7.0670 C.3       10 UNK        -0.1982 
     62 C          35.9738   29.3852    6.2453 C.2       10 UNK         0.4970 
     63 O          36.3703   28.8953    5.1851 O.2       10 UNK        -0.4916 
     64 N          35.1544   28.7647    7.0997 N.am      11 UNK        -0.4279 
     65 CA         34.5194   27.4613    6.8426 C.3       11 UNK         0.1003 
     66 C          35.4493   26.2284    7.0354 C.2       11 UNK         0.5709 
     67 N          36.6563   26.3797    7.5680 N.am      11 UNK        -0.7358 
     68 O          35.0702   25.1131    6.6863 O.2       11 UNK        -0.4999 
     69 C69        33.1937   27.2940    7.6362 C.3       12 UNK        -0.0954 
     70 S70        32.0598   28.7241    7.5306 S.3       12 UNK        -0.2268 
     71 C71        31.5803   28.7302    5.7740 C.3       12 UNK         0.0203 
     72 H72        29.0397   20.3344    2.3543 H         1 UNK         0.0888 
     73 H73        28.3799   19.8389    0.7932 H         1 UNK         0.0888 
     74 H74        30.1093   20.1502    0.9629 H         1 UNK         0.0888 
     75 H75        30.7012   22.1047    0.0890 H         1 UNK         0.3017 
     76 H76        30.7236   24.1647   -0.7136 H         1 UNK         0.0873 
     77 H77        30.0775   26.0014    0.8477 H         1 UNK         0.0745 
     78 H78        29.1912   24.8635    1.8342 H         1 UNK         0.0745 
     79 H79        30.2609   23.3467    3.6112 H         1 UNK         0.0705 
     80 H80        31.8207   23.7591    4.2843 H         1 UNK         0.0705 
     81 H81        32.2775   26.3929    4.5432 H         1 UNK         0.1334 
     82 H82        28.9120   28.4589    6.2056 H         1 UNK         0.1417 
     83 H83        28.3909   24.5784    4.4515 H         1 UNK         0.1562 
     84 H84        26.7664   25.7348    6.3666 H         1 UNK         0.0748 
     85 H85        26.7666   27.4770    6.2680 H         1 UNK         0.0748 
     86 H86        27.3271   28.4071    3.7578 H         1 UNK         0.0940 
     87 H87        25.6894   28.6759    3.2496 H         1 UNK         0.0940 
     88 H88        27.6358   26.7207    1.9149 H         1 UNK         0.0703 
     89 H89        25.9696   26.0030    0.6538 H         1 UNK         0.3081 
     90 H90        22.6780   26.7122    0.3129 H         1 UNK         0.0719 
     91 H91        23.1420   28.4605   -1.4111 H         1 UNK         0.0809 
     92 H92        24.4331   27.4770   -2.0884 H         1 UNK         0.0809 
     93 H93        22.7594   26.9271   -2.1744 H         1 UNK         0.0809 
     94 H94        24.4139   25.1298   -1.3650 H         1 UNK         0.2990 
     95 H95        24.9280   22.4767    0.8629 H         1 UNK         0.0690 
     96 H96        23.8786   21.0833   -0.9163 H         1 UNK         0.0788 
     97 H97        23.0262   22.4955   -1.5404 H         1 UNK         0.0788 
     98 H98        22.6678   21.8901    0.0672 H         1 UNK         0.0788 
     99 H99        26.6065   22.8256   -0.4668 H         1 UNK         0.2993 
    100 H100       27.2653   22.7227   -3.4737 H         1 UNK         0.0949 
    101 H101       27.1687   25.7770   -3.2450 H         1 UNK         0.0767 
    102 H102       28.3228   24.8876   -4.2381 H         1 UNK         0.0767 
    103 H103       26.6066   24.8036   -4.5933 H         1 UNK         0.0767 
    104 H104       28.8971   22.7193   -1.9912 H         1 UNK         0.3013 
    105 H105       27.9410   27.2819   -0.4681 H         1 UNK         0.3121 
    106 H106       28.0296   30.0431   -1.2699 H         1 UNK         0.0774 
    107 H107       29.2867   27.5233   -2.4886 H         1 UNK         0.0815 
    108 H108       27.7022   28.1916   -2.8812 H         1 UNK         0.0815 
    109 H109       29.1571   29.0816   -3.2939 H         1 UNK         0.0815 
    110 H110       30.1767   28.2432    0.6833 H         1 UNK         0.2987 
    111 H111       32.6732   29.5677   -0.0194 H         1 UNK         0.0949 
    112 H112       32.6927   27.2737    0.8822 H         1 UNK         0.0806 
    113 H113       33.4997   28.3481    2.0126 H         1 UNK         0.0806 
    114 H114       31.8639   27.7988    2.3470 H         1 UNK         0.0806 
    115 H115       31.6802   31.7457    0.0555 H         1 UNK         0.3010 
    116 H116       31.0976   33.0186    2.5962 H         1 UNK         0.0829 
    117 H117       31.6727   34.1923   -0.1775 H         1 UNK         0.0813 
    118 H118       30.0817   33.7929    0.4692 H         1 UNK         0.0813 
    119 H119       31.0282   35.0801    1.1972 H         1 UNK         0.0813 
    120 H120       33.1649   31.9550    3.4775 H         1 UNK         0.3038 
    121 H121       35.1766   33.9400    3.9696 H         1 UNK         0.0769 
    122 H122       36.0306   32.9691    1.7641 H         1 UNK         0.0811 
    123 H123       36.0520   31.3722    2.5041 H         1 UNK         0.0811 
    124 H124       37.1177   32.6463    3.0926 H         1 UNK         0.0811 
    125 H125       37.0651   31.9841    4.9947 H         1 UNK         0.3204 
    126 H126       35.8152   31.1592    7.4693 H         1 UNK         0.0748 
    127 H127       38.5575   30.4748    6.2664 H         1 UNK         0.0771 
    128 H128       38.2183   31.8116    7.3664 H         1 UNK         0.0771 
    129 H129       38.0575   30.1538    7.9211 H         1 UNK         0.0771 
    130 H130       34.8715   29.2326    7.9480 H         1 UNK         0.2980 
    131 H131       34.2571   27.4412    5.7838 H         1 UNK         0.0545 
    132 H132       37.2500   25.5734    7.6828 H         1 UNK         0.3459 
    133 H133       36.9783   27.2902    7.8532 H         1 UNK         0.3459 
    134 H134       33.4110   27.1349    8.6938 H         1 UNK         0.0616 
    135 H135       32.6566   26.4038    7.3045 H         1 UNK         0.0616 
    136 H136       32.4692   28.7546    5.1427 H         1 UNK         0.0634 
    137 H137       31.0477   29.6591    5.5647 H         1 UNK         0.0634 
@<TRIPOS>BOND
     1    1    2 1    
     2    1   72 1    
     3    1   73 1    
     4    1   74 1    
     5    2    3 2    
     6    2    4 am   BACKBONE|DICT|INTERRES
     7    4    5 1    
     8    4   75 1    
     9    5    6 1    
    10    5   35 1    
    11    5   76 1    
    12    6    7 1    
    13    6   77 1    
    14    6   78 1    
    15    7    8 1    
    16    8    9 1    
    17    8   79 1    
    18    8   80 1    
    19    9   10 ar   
    20    9   14 ar   
    21   10   11 ar   
    22   10   81 1    
    23   11   12 ar   
    24   11   71 1    
    25   12   13 ar   
    26   12   82 1    
    27   13   14 ar   
    28   13   15 1    
    29   14   83 1    
    30   15   16 1    
    31   15   84 1    
    32   15   85 1    
    33   16   17 1    
    34   17   18 1    
    35   17   86 1    
    36   17   87 1    
    37   18   19 1    
    38   18   37 1    
    39   18   88 1    
    40   19   20 am   BACKBONE|DICT|INTERRES
    41   19   89 1    
    42   20   21 2    
    43   20   22 1    
    44   22   23 1    
    45   22   24 1    
    46   22   90 1    
    47   23   91 1    
    48   23   92 1    
    49   23   93 1    
    50   24   25 am   BACKBONE|DICT|INTERRES
    51   24   94 1    
    52   25   26 2    
    53   25   27 1    
    54   27   28 1    
    55   27   29 1    
    56   27   95 1    
    57   28   96 1    
    58   28   97 1    
    59   28   98 1    
    60   29   30 am   BACKBONE|DICT|INTERRES
    61   29   99 1    
    62   30   31 2    
    63   30   32 1    
    64   32   33 1    
    65   32   34 1    
    66   32  100 1    
    67   33  101 1    
    68   33  102 1    
    69   33  103 1    
    70   34   35 am   BACKBONE|DICT|INTERRES
    71   34  104 1    
    72   35   36 2    
    73   37   38 2    
    74   37   39 am   BACKBONE|DICT|INTERRES
    75   39   40 1    
    76   39  105 1    
    77   40   41 1    
    78   40   42 1    
    79   40  106 1    
    80   41  107 1    
    81   41  108 1    
    82   41  109 1    
    83   42   43 2    
    84   42   44 am   BACKBONE|DICT|INTERRES
    85   44   45 1    
    86   44  110 1    
    87   45   46 1    
    88   45   47 1    
    89   45  111 1    
    90   46  112 1    
    91   46  113 1    
    92   46  114 1    
    93   47   48 2    
    94   47   49 am   BACKBONE|DICT|INTERRES
    95   49   50 1    
    96   49  115 1    
    97   50   51 1    
    98   50   52 1    
    99   50  116 1    
   100   51  117 1    
   101   51  118 1    
   102   51  119 1    
   103   52   53 2    
   104   52   54 am   BACKBONE|DICT|INTERRES
   105   54   55 1    
   106   54  120 1    
   107   55   56 1    
   108   55   57 1    
   109   55  121 1    
   110   56  122 1    
   111   56  123 1    
   112   56  124 1    
   113   57   58 2    
   114   57   59 am   BACKBONE|DICT|INTERRES
   115   59   60 1    
   116   59  125 1    
   117   60   61 1    
   118   60   62 1    
   119   60  126 1    
   120   61  127 1    
   121   61  128 1    
   122   61  129 1    
   123   62   63 2    
   124   62   64 am   BACKBONE|DICT|INTERRES
   125   64   65 1    
   126   64  130 1    
   127   65   66 1    
   128   65   69 1    
   129   65  131 1    
   130   66   67 am   BACKBONE|DICT|INTERRES
   131   66   68 2    
   132   67  132 1    
   133   67  133 1    
   134   69   70 1    
   135   69  134 1    
   136   69  135 1    
   137   70   71 1    
   138   71  136 1    
   139   71  137 1    
@<TRIPOS>SUBSTRUCTURE
     1 UNK         1 GROUP             0       ****    0 ROOT    
