@<TRIPOS>MOLECULE
3R136
137   139    1
SMALL
USER_CHARGES


@<TRIPOS>ATOM
      1 CA         25.0354   22.2523    4.8585 C.3       0 UNK        -0.1979 
      2 C          25.9956   22.6136    3.7344 C.2       0 UNK         0.4864 
      3 O          26.1951   23.7996    3.4721 O.2       0 UNK        -0.5359 
      4 N          26.5882   21.5949    3.0912 N.am      1 UNK        -0.4318 
      5 CA         27.5016   21.6605    1.9407 C.3       1 UNK         0.0824 
      6 C6         28.6806   22.6517    2.1444 C.3       12 UNK        -0.0944 
      7 S7         30.1268   22.2884    1.0899 S.3       12 UNK        -0.2672 
      8 C8         31.5051   22.4504    2.2720 C.3       12 UNK         0.0333 
      9 C9         31.7557   23.9052    2.6441 C.ar      12 UNK        -0.0807 
     10 C10        32.6175   24.6916    1.8737 C.ar      12 UNK        -0.0894 
     11 C11        32.8419   26.0343    2.1960 C.ar      12 UNK        -0.0804 
     12 C12        32.1736   26.5924    3.2937 C.ar      12 UNK        -0.0824 
     13 C13        31.3128   25.8148    4.0734 C.ar      12 UNK        -0.0762 
     14 C14        31.1222   24.4690    3.7543 C.ar      12 UNK        -0.0782 
     15 C15        30.5721   26.4231    5.2541 C.3       12 UNK         0.0230 
     16 S16        28.8140   26.6965    4.8609 S.3       12 UNK        -0.2608 
     17 C17        28.8978   28.2024    3.8352 C.3       12 UNK        -0.0989 
     18 CA         29.0388   27.9162    2.3131 C.3       5 UNK         0.0716 
     19 N          28.0033   27.0389    1.7602 N.am      5 UNK        -0.4135 
     20 C          26.6926   27.2878    1.6359 C.2       4 UNK         0.5031 
     21 O          26.1363   28.2861    2.0957 O.2       4 UNK        -0.5229 
     22 CA         25.8828   26.2616    0.8093 C.3       4 UNK         0.0329 
     23 CB         24.6523   26.8958    0.1274 C.3       4 UNK        -0.2001 
     24 N          26.6906   25.5225   -0.1775 N.am      4 UNK        -0.4303 
     25 C          27.4390   26.0435   -1.1670 C.2       3 UNK         0.5044 
     26 O          27.5121   27.2511   -1.3958 O.2       3 UNK        -0.5152 
     27 CA         28.3204   25.0882   -1.9947 C.3       3 UNK         0.0319 
     28 CB         29.8048   25.3219   -1.6599 C.3       3 UNK        -0.2001 
     29 N          28.0130   23.6744   -1.7798 N.am      3 UNK        -0.4354 
     30 C          26.9746   23.0201   -2.3193 C.2       2 UNK         0.4964 
     31 O          26.1980   23.5173   -3.1347 O.2       2 UNK        -0.5047 
     32 CA         26.7476   21.5736   -1.8391 C.3       2 UNK         0.0288 
     33 CB         27.4142   20.5753   -2.7994 C.3       2 UNK        -0.2113 
     34 N          27.2356   21.3350   -0.4745 N.am      2 UNK        -0.4145 
     35 C          26.7478   21.9334    0.6223 C.2       1 UNK         0.5006 
     36 O          25.7910   22.7104    0.5928 O.2       1 UNK        -0.5103 
     37 C          29.2601   29.2128    1.5003 C.2       5 UNK         0.5055 
     38 O          29.8585   30.1478    2.0334 O.2       5 UNK        -0.5220 
     39 N          28.8114   29.2657    0.2347 N.am      6 UNK        -0.4450 
     40 CA         28.8828   30.4216   -0.6664 C.3       6 UNK         0.0367 
     41 CB         30.3428   30.6688   -1.1139 C.3       6 UNK        -0.1929 
     42 C          28.1855   31.6531   -0.0509 C.2       6 UNK         0.5070 
     43 O          26.9833   31.5933    0.2074 O.2       6 UNK        -0.5237 
     44 N          28.9420   32.7259    0.2103 N.am      7 UNK        -0.4739 
     45 CA         28.4859   33.9447    0.8852 C.3       7 UNK         0.0276 
     46 CB         29.1114   35.1621    0.1780 C.3       7 UNK        -0.1927 
     47 C          28.8121   33.9061    2.3931 C.2       7 UNK         0.5013 
     48 O          29.2488   34.9165    2.9466 O.2       7 UNK        -0.5193 
     49 N          28.6152   32.7355    3.0202 N.am      8 UNK        -0.4253 
     50 CA         28.9660   32.3859    4.4048 C.3       8 UNK         0.0242 
     51 CB         28.1343   33.2018    5.4178 C.3       8 UNK        -0.2000 
     52 C          30.4859   32.4716    4.6492 C.2       8 UNK         0.4948 
     53 O          30.9329   33.1023    5.6100 O.2       8 UNK        -0.5275 
     54 N          31.2500   31.8549    3.7409 N.am      9 UNK        -0.4246 
     55 CA         32.7093   31.8254    3.7408 C.3       9 UNK         0.0261 
     56 CB         33.1877   31.4369    2.3337 C.3       9 UNK        -0.1959 
     57 C          33.2630   30.8575    4.7994 C.2       9 UNK         0.5033 
     58 O          32.6694   29.8049    5.0532 O.2       9 UNK        -0.5390 
     59 N          34.4163   31.2179    5.3758 N.am      10 UNK        -0.4215 
     60 CA         35.1239   30.4592    6.4098 C.3       10 UNK         0.0240 
     61 CB         35.9916   31.4306    7.2330 C.3       10 UNK        -0.1982 
     62 C          35.9408   29.2993    5.8084 C.2       10 UNK         0.4970 
     63 O          37.1723   29.3176    5.8597 O.2       10 UNK        -0.4916 
     64 N          35.2330   28.3199    5.2422 N.am      11 UNK        -0.4279 
     65 CA         35.7851   27.1133    4.6036 C.3       11 UNK         0.1003 
     66 C          35.0625   25.8004    5.0186 C.2       11 UNK         0.5709 
     67 N          34.1802   25.8173    6.0119 N.am      11 UNK        -0.7358 
     68 O          35.3416   24.7369    4.4703 O.2       11 UNK        -0.4999 
     69 C69        35.9955   27.2792    3.0668 C.3       12 UNK        -0.0954 
     70 S70        34.6769   28.1833    2.1820 S.3       12 UNK        -0.2268 
     71 C71        33.7672   26.8651    1.3099 C.3       12 UNK         0.0203 
     72 H72        24.0389   22.6324    4.6352 H         1 UNK         0.0888 
     73 H73        24.9624   21.1748    5.0053 H         1 UNK         0.0888 
     74 H74        25.3692   22.7000    5.7943 H         1 UNK         0.0888 
     75 H75        26.3466   20.6550    3.3735 H         1 UNK         0.3017 
     76 H76        27.9189   20.6542    1.8721 H         1 UNK         0.0873 
     77 H77        28.3735   23.6859    1.9782 H         1 UNK         0.0745 
     78 H78        28.9967   22.6003    3.1857 H         1 UNK         0.0745 
     79 H79        32.4040   22.0263    1.8219 H         1 UNK         0.0705 
     80 H80        31.3033   21.8534    3.1627 H         1 UNK         0.0705 
     81 H81        33.1078   24.2564    1.0135 H         1 UNK         0.1334 
     82 H82        32.3084   27.6369    3.5381 H         1 UNK         0.1417 
     83 H83        30.4584   23.8711    4.3625 H         1 UNK         0.1562 
     84 H84        31.0366   27.3588    5.5702 H         1 UNK         0.0748 
     85 H85        30.6410   25.7471    6.1075 H         1 UNK         0.0748 
     86 H86        29.7310   28.8092    4.1961 H         1 UNK         0.0940 
     87 H87        27.9986   28.7906    4.0252 H         1 UNK         0.0940 
     88 H88        29.9596   27.3594    2.1632 H         1 UNK         0.0703 
     89 H89        28.3427   26.1726    1.3713 H         1 UNK         0.3081 
     90 H90        25.5193   25.5192    1.5207 H         1 UNK         0.0719 
     91 H91        24.9371   27.6961   -0.5565 H         1 UNK         0.0809 
     92 H92        24.0875   26.1548   -0.4383 H         1 UNK         0.0809 
     93 H93        23.9729   27.3247    0.8649 H         1 UNK         0.0809 
     94 H94        26.6578   24.5143   -0.0762 H         1 UNK         0.2990 
     95 H95        28.1628   25.3275   -3.0486 H         1 UNK         0.0690 
     96 H96        30.4528   24.7007   -2.2786 H         1 UNK         0.0788 
     97 H97        30.0269   25.0990   -0.6151 H         1 UNK         0.0788 
     98 H98        30.0900   26.3598   -1.8389 H         1 UNK         0.0788 
     99 H99        28.6104   23.1752   -1.1357 H         1 UNK         0.2993 
    100 H100       25.6702   21.3936   -1.8466 H         1 UNK         0.0949 
    101 H101       28.4983   20.6951   -2.8193 H         1 UNK         0.0767 
    102 H102       27.1943   19.5454   -2.5172 H         1 UNK         0.0767 
    103 H103       27.0520   20.7140   -3.8192 H         1 UNK         0.0767 
    104 H104       28.0348   20.7235   -0.3807 H         1 UNK         0.3013 
    105 H105       28.3050   28.4686   -0.1427 H         1 UNK         0.3121 
    106 H106       28.3052   30.1563   -1.5532 H         1 UNK         0.0774 
    107 H107       30.4018   31.4853   -1.8349 H         1 UNK         0.0815 
    108 H108       31.0012   30.9112   -0.2790 H         1 UNK         0.0815 
    109 H109       30.7517   29.7849   -1.6035 H         1 UNK         0.0815 
    110 H110       29.9308   32.6679    0.0122 H         1 UNK         0.2987 
    111 H111       27.4008   34.0343    0.8002 H         1 UNK         0.0949 
    112 H112       28.8607   35.1760   -0.8827 H         1 UNK         0.0806 
    113 H113       28.7452   36.0962    0.6060 H         1 UNK         0.0806 
    114 H114       30.1983   35.1657    0.2664 H         1 UNK         0.0806 
    115 H115       28.3067   31.9609    2.4471 H         1 UNK         0.3010 
    116 H116       28.6977   31.3361    4.5322 H         1 UNK         0.0829 
    117 H117       27.0660   33.0993    5.2277 H         1 UNK         0.0813 
    118 H118       28.3169   32.8571    6.4363 H         1 UNK         0.0813 
    119 H119       28.3807   34.2634    5.3873 H         1 UNK         0.0813 
    120 H120       30.7851   31.2899    3.0301 H         1 UNK         0.3038 
    121 H121       33.0701   32.8319    3.9630 H         1 UNK         0.0769 
    122 H122       34.2751   31.3636    2.2904 H         1 UNK         0.0811 
    123 H123       32.8820   32.1769    1.5940 H         1 UNK         0.0811 
    124 H124       32.7798   30.4732    2.0261 H         1 UNK         0.0811 
    125 H125       34.8589   32.0738    5.0728 H         1 UNK         0.3204 
    126 H126       34.3892   30.0203    7.0886 H         1 UNK         0.0748 
    127 H127       36.5177   30.9043    8.0307 H         1 UNK         0.0771 
    128 H128       36.7436   31.9258    6.6173 H         1 UNK         0.0771 
    129 H129       35.3832   32.2026    7.7046 H         1 UNK         0.0771 
    130 H130       34.2267   28.4342    5.1821 H         1 UNK         0.2980 
    131 H131       36.7803   26.9549    5.0226 H         1 UNK         0.0545 
    132 H132       33.7313   24.9554    6.2755 H         1 UNK         0.3459 
    133 H133       33.9801   26.6652    6.5153 H         1 UNK         0.3459 
    134 H134       36.1792   26.3220    2.5765 H         1 UNK         0.0616 
    135 H135       36.9088   27.8544    2.9093 H         1 UNK         0.0616 
    136 H136       33.1595   27.3303    0.5328 H         1 UNK         0.0634 
    137 H137       34.4864   26.2246    0.7973 H         1 UNK         0.0634 
@<TRIPOS>BOND
     1    1    2 1    
     2    1   72 1    
     3    1   73 1    
     4    1   74 1    
     5    2    3 2    
     6    2    4 am   BACKBONE|DICT|INTERRES
     7    4    5 1    
     8    4   75 1    
     9    5    6 1    
    10    5   35 1    
    11    5   76 1    
    12    6    7 1    
    13    6   77 1    
    14    6   78 1    
    15    7    8 1    
    16    8    9 1    
    17    8   79 1    
    18    8   80 1    
    19    9   10 ar   
    20    9   14 ar   
    21   10   11 ar   
    22   10   81 1    
    23   11   12 ar   
    24   11   71 1    
    25   12   13 ar   
    26   12   82 1    
    27   13   14 ar   
    28   13   15 1    
    29   14   83 1    
    30   15   16 1    
    31   15   84 1    
    32   15   85 1    
    33   16   17 1    
    34   17   18 1    
    35   17   86 1    
    36   17   87 1    
    37   18   19 1    
    38   18   37 1    
    39   18   88 1    
    40   19   20 am   BACKBONE|DICT|INTERRES
    41   19   89 1    
    42   20   21 2    
    43   20   22 1    
    44   22   23 1    
    45   22   24 1    
    46   22   90 1    
    47   23   91 1    
    48   23   92 1    
    49   23   93 1    
    50   24   25 am   BACKBONE|DICT|INTERRES
    51   24   94 1    
    52   25   26 2    
    53   25   27 1    
    54   27   28 1    
    55   27   29 1    
    56   27   95 1    
    57   28   96 1    
    58   28   97 1    
    59   28   98 1    
    60   29   30 am   BACKBONE|DICT|INTERRES
    61   29   99 1    
    62   30   31 2    
    63   30   32 1    
    64   32   33 1    
    65   32   34 1    
    66   32  100 1    
    67   33  101 1    
    68   33  102 1    
    69   33  103 1    
    70   34   35 am   BACKBONE|DICT|INTERRES
    71   34  104 1    
    72   35   36 2    
    73   37   38 2    
    74   37   39 am   BACKBONE|DICT|INTERRES
    75   39   40 1    
    76   39  105 1    
    77   40   41 1    
    78   40   42 1    
    79   40  106 1    
    80   41  107 1    
    81   41  108 1    
    82   41  109 1    
    83   42   43 2    
    84   42   44 am   BACKBONE|DICT|INTERRES
    85   44   45 1    
    86   44  110 1    
    87   45   46 1    
    88   45   47 1    
    89   45  111 1    
    90   46  112 1    
    91   46  113 1    
    92   46  114 1    
    93   47   48 2    
    94   47   49 am   BACKBONE|DICT|INTERRES
    95   49   50 1    
    96   49  115 1    
    97   50   51 1    
    98   50   52 1    
    99   50  116 1    
   100   51  117 1    
   101   51  118 1    
   102   51  119 1    
   103   52   53 2    
   104   52   54 am   BACKBONE|DICT|INTERRES
   105   54   55 1    
   106   54  120 1    
   107   55   56 1    
   108   55   57 1    
   109   55  121 1    
   110   56  122 1    
   111   56  123 1    
   112   56  124 1    
   113   57   58 2    
   114   57   59 am   BACKBONE|DICT|INTERRES
   115   59   60 1    
   116   59  125 1    
   117   60   61 1    
   118   60   62 1    
   119   60  126 1    
   120   61  127 1    
   121   61  128 1    
   122   61  129 1    
   123   62   63 2    
   124   62   64 am   BACKBONE|DICT|INTERRES
   125   64   65 1    
   126   64  130 1    
   127   65   66 1    
   128   65   69 1    
   129   65  131 1    
   130   66   67 am   BACKBONE|DICT|INTERRES
   131   66   68 2    
   132   67  132 1    
   133   67  133 1    
   134   69   70 1    
   135   69  134 1    
   136   69  135 1    
   137   70   71 1    
   138   71  136 1    
   139   71  137 1    
@<TRIPOS>SUBSTRUCTURE
     1 UNK         1 GROUP             0       ****    0 ROOT    
