@<TRIPOS>MOLECULE
3R136
137   139    1
SMALL
USER_CHARGES


@<TRIPOS>ATOM
      1 CA         29.7842   21.8074    4.8264 C.3       0 UNK        -0.1979 
      2 C          28.9126   20.8382    4.0401 C.2       0 UNK         0.4864 
      3 O          28.2641   19.9750    4.6338 O.2       0 UNK        -0.5359 
      4 N          28.9001   20.9740    2.7090 N.am      1 UNK        -0.4318 
      5 CA         28.0462   20.2208    1.7861 C.3       1 UNK         0.0824 
      6 C6         28.6863   20.1346    0.3727 C.3       12 UNK        -0.0944 
      7 S7         29.0509   21.7603   -0.3756 S.3       12 UNK        -0.2672 
      8 C8         30.8533   21.8723   -0.1565 C.3       12 UNK         0.0333 
      9 C9         31.3287   23.3178   -0.0879 C.ar      12 UNK        -0.0807 
     10 C10        31.7052   23.8759    1.1383 C.ar      12 UNK        -0.0894 
     11 C11        32.2208   25.1741    1.2016 C.ar      12 UNK        -0.0804 
     12 C12        32.3461   25.9209    0.0274 C.ar      12 UNK        -0.0824 
     13 C13        31.9443   25.3874   -1.2032 C.ar      12 UNK        -0.0762 
     14 C14        31.4369   24.0842   -1.2532 C.ar      12 UNK        -0.0782 
     15 C15        32.1059   26.1952   -2.4865 C.3       12 UNK         0.0230 
     16 S16        30.6191   27.1686   -2.9008 S.3       12 UNK        -0.2608 
     17 C17        30.6559   28.4607   -1.6082 C.3       12 UNK        -0.0989 
     18 CA         29.4837   28.3767   -0.5877 C.3       5 UNK         0.0716 
     19 N          29.2056   27.0008   -0.1625 N.am      5 UNK        -0.4135 
     20 C          28.0280   26.5393    0.2713 C.2       4 UNK         0.5031 
     21 O          27.0299   27.2458    0.4399 O.2       4 UNK        -0.5229 
     22 CA         27.9752   25.0461    0.6190 C.3       4 UNK         0.0329 
     23 CB         28.1601   24.8391    2.1299 C.3       4 UNK        -0.2001 
     24 N          26.7291   24.4062    0.1912 N.am      4 UNK        -0.4303 
     25 C          26.3106   24.3045   -1.0791 C.2       3 UNK         0.5044 
     26 O          26.9431   24.7288   -2.0479 O.2       3 UNK        -0.5152 
     27 CA         24.9794   23.5671   -1.2949 C.3       3 UNK         0.0319 
     28 CB         24.6505   23.3228   -2.7806 C.3       3 UNK        -0.2001 
     29 N          25.0116   22.2879   -0.5878 N.am      3 UNK        -0.4354 
     30 C          24.0300   21.8010    0.1814 C.2       2 UNK         0.4964 
     31 O          22.9448   22.3616    0.3403 O.2       2 UNK        -0.5047 
     32 CA         24.2890   20.4629    0.9047 C.3       2 UNK         0.0288 
     33 CB         23.5538   19.3177    0.1882 C.3       2 UNK        -0.2113 
     34 N          25.7047   20.0995    1.0537 N.am      2 UNK        -0.4145 
     35 C          26.6094   20.7944    1.7592 C.2       1 UNK         0.5006 
     36 O          26.3423   21.8486    2.3435 O.2       1 UNK        -0.5103 
     37 C          29.7179   29.2796    0.6443 C.2       5 UNK         0.5055 
     38 O          30.7820   29.8882    0.7708 O.2       5 UNK        -0.5220 
     39 N          28.7459   29.2972    1.5644 N.am      6 UNK        -0.4450 
     40 CA         28.8360   29.9609    2.8615 C.3       6 UNK         0.0367 
     41 CB         27.6533   29.5250    3.7404 C.3       6 UNK        -0.1929 
     42 C          28.8997   31.4909    2.7370 C.2       6 UNK         0.5070 
     43 O          28.1502   32.0725    1.9487 O.2       6 UNK        -0.5237 
     44 N          29.7753   32.1072    3.5349 N.am      7 UNK        -0.4739 
     45 CA         30.0535   33.5418    3.5818 C.3       7 UNK         0.0276 
     46 CB         30.7391   34.0072    2.2792 C.3       7 UNK        -0.1927 
     47 C          30.9674   33.8111    4.7817 C.2       7 UNK         0.5013 
     48 O          31.6060   32.8821    5.2786 O.2       7 UNK        -0.5193 
     49 N          31.0741   35.0814    5.1938 N.am      8 UNK        -0.4253 
     50 CA         31.9273   35.5289    6.3057 C.3       8 UNK         0.0242 
     51 CB         31.6976   37.0297    6.5483 C.3       8 UNK        -0.2000 
     52 C          33.4313   35.2395    6.1174 C.2       8 UNK         0.4948 
     53 O          34.1448   35.0929    7.1102 O.2       8 UNK        -0.5275 
     54 N          33.8754   35.1482    4.8570 N.am      9 UNK        -0.4246 
     55 CA         35.2393   34.7939    4.4587 C.3       9 UNK         0.0261 
     56 CB         35.6675   35.7302    3.3133 C.3       9 UNK        -0.1959 
     57 C          35.3773   33.3140    4.0421 C.2       9 UNK         0.5033 
     58 O          36.4376   32.9422    3.5352 O.2       9 UNK        -0.5390 
     59 N          34.3293   32.4999    4.2281 N.am      10 UNK        -0.4215 
     60 CA         34.2734   31.0897    3.8419 C.3       10 UNK         0.0240 
     61 CB         33.4702   30.9579    2.5306 C.3       10 UNK        -0.1982 
     62 C          33.6966   30.2595    5.0015 C.2       10 UNK         0.4970 
     63 O          33.8753   30.6293    6.1647 O.2       10 UNK        -0.4916 
     64 N          33.0477   29.1367    4.6716 N.am      11 UNK        -0.4279 
     65 CA         32.3264   28.2713    5.6140 C.3       11 UNK         0.1003 
     66 C          31.0035   28.8939    6.1493 C.2       11 UNK         0.5709 
     67 N          30.3941   28.2818    7.1559 N.am      11 UNK        -0.7358 
     68 O          30.5194   29.9166    5.6699 O.2       11 UNK        -0.4999 
     69 C69        32.1461   26.8345    5.0487 C.3       12 UNK        -0.0954 
     70 S70        31.4296   26.7350    3.3672 S.3       12 UNK        -0.2268 
     71 C71        32.7042   25.7404    2.5295 C.3       12 UNK         0.0203 
     72 H72        29.1783   22.3526    5.5496 H         1 UNK         0.0888 
     73 H73        30.5564   21.2631    5.3692 H         1 UNK         0.0888 
     74 H74        30.2725   22.5360    4.1795 H         1 UNK         0.0888 
     75 H75        29.4165   21.7271    2.2805 H         1 UNK         0.3017 
     76 H76        27.9607   19.2003    2.1662 H         1 UNK         0.0873 
     77 H77        29.6069   19.5514    0.4274 H         1 UNK         0.0745 
     78 H78        28.0460   19.5795   -0.3147 H         1 UNK         0.0745 
     79 H79        31.1510   21.3413    0.7489 H         1 UNK         0.0705 
     80 H80        31.3455   21.3594   -0.9841 H         1 UNK         0.0705 
     81 H81        31.6306   23.2887    2.0430 H         1 UNK         0.1334 
     82 H82        32.7729   26.9130    0.0772 H         1 UNK         0.1417 
     83 H83        31.1425   23.6568   -2.2026 H         1 UNK         0.1562 
     84 H84        32.3204   25.5216   -3.3176 H         1 UNK         0.0748 
     85 H85        32.9691   26.8586   -2.4126 H         1 UNK         0.0748 
     86 H86        30.6320   29.4315   -2.1064 H         1 UNK         0.0940 
     87 H87        31.6239   28.4261   -1.1094 H         1 UNK         0.0940 
     88 H88        28.5926   28.7558   -1.0929 H         1 UNK         0.0703 
     89 H89        29.9807   26.3572   -0.2485 H         1 UNK         0.3081 
     90 H90        28.7940   24.5523    0.0971 H         1 UNK         0.0719 
     91 H91        29.0920   25.2859    2.4734 H         1 UNK         0.0809 
     92 H92        28.2013   23.7812    2.3837 H         1 UNK         0.0809 
     93 H93        27.3495   25.2920    2.7021 H         1 UNK         0.0809 
     94 H94        26.1560   24.0057    0.9209 H         1 UNK         0.2990 
     95 H95        24.2037   24.2115   -0.8756 H         1 UNK         0.0690 
     96 H96        25.4065   22.7021   -3.2628 H         1 UNK         0.0788 
     97 H97        24.5979   24.2636   -3.3302 H         1 UNK         0.0788 
     98 H98        23.6864   22.8271   -2.8956 H         1 UNK         0.0788 
     99 H99        25.8816   21.7761   -0.6417 H         1 UNK         0.2993 
    100 H100       23.8703   20.5623    1.9086 H         1 UNK         0.0949 
    101 H101       22.4895   19.5369    0.0895 H         1 UNK         0.0767 
    102 H102       23.9464   19.1524   -0.8161 H         1 UNK         0.0767 
    103 H103       23.6382   18.3823    0.7419 H         1 UNK         0.0767 
    104 H104       25.9948   19.2455    0.5992 H         1 UNK         0.3013 
    105 H105       27.9043   28.7636    1.3695 H         1 UNK         0.3121 
    106 H106       29.7602   29.6082    3.3194 H         1 UNK         0.0774 
    107 H107       27.7192   29.9785    4.7304 H         1 UNK         0.0815 
    108 H108       26.6976   29.8209    3.3061 H         1 UNK         0.0815 
    109 H109       27.6418   28.4440    3.8812 H         1 UNK         0.0815 
    110 H110       30.3047   31.5626    4.2132 H         1 UNK         0.2987 
    111 H111       29.1135   34.0787    3.7250 H         1 UNK         0.0949 
    112 H112       31.6781   33.4799    2.1072 H         1 UNK         0.0806 
    113 H113       30.1048   33.8448    1.4080 H         1 UNK         0.0806 
    114 H114       30.9644   35.0737    2.3089 H         1 UNK         0.0806 
    115 H115       30.5278   35.7930    4.7289 H         1 UNK         0.3010 
    116 H116       31.6085   34.9863    7.1984 H         1 UNK         0.0829 
    117 H117       30.6551   37.2393    6.7886 H         1 UNK         0.0813 
    118 H118       32.2980   37.3860    7.3868 H         1 UNK         0.0813 
    119 H119       31.9698   37.6265    5.6767 H         1 UNK         0.0813 
    120 H120       33.2115   35.2884    4.1093 H         1 UNK         0.3038 
    121 H121       35.9234   34.9520    5.2950 H         1 UNK         0.0769 
    122 H122       35.0532   35.5871    2.4235 H         1 UNK         0.0811 
    123 H123       36.7046   35.5525    3.0255 H         1 UNK         0.0811 
    124 H124       35.5932   36.7770    3.6084 H         1 UNK         0.0811 
    125 H125       33.5120   32.8337    4.7333 H         1 UNK         0.3204 
    126 H126       35.2819   30.7091    3.6686 H         1 UNK         0.0748 
    127 H127       33.8514   31.6326    1.7639 H         1 UNK         0.0771 
    128 H128       33.5304   29.9502    2.1180 H         1 UNK         0.0771 
    129 H129       32.4152   31.1911    2.6798 H         1 UNK         0.0771 
    130 H130       32.9155   28.9166    3.6961 H         1 UNK         0.2980 
    131 H131       32.9659   28.1779    6.4940 H         1 UNK         0.0545 
    132 H132       30.7741   27.4447    7.5683 H         1 UNK         0.3459 
    133 H133       29.5374   28.6730    7.5139 H         1 UNK         0.3459 
    134 H134       33.1234   26.3501    5.0426 H         1 UNK         0.0616 
    135 H135       31.5353   26.2225    5.7141 H         1 UNK         0.0616 
    136 H136       33.0086   24.9201    3.1816 H         1 UNK         0.0634 
    137 H137       33.5928   26.3544    2.3756 H         1 UNK         0.0634 
@<TRIPOS>BOND
     1    1    2 1    
     2    1   72 1    
     3    1   73 1    
     4    1   74 1    
     5    2    3 2    
     6    2    4 am   BACKBONE|DICT|INTERRES
     7    4    5 1    
     8    4   75 1    
     9    5    6 1    
    10    5   35 1    
    11    5   76 1    
    12    6    7 1    
    13    6   77 1    
    14    6   78 1    
    15    7    8 1    
    16    8    9 1    
    17    8   79 1    
    18    8   80 1    
    19    9   10 ar   
    20    9   14 ar   
    21   10   11 ar   
    22   10   81 1    
    23   11   12 ar   
    24   11   71 1    
    25   12   13 ar   
    26   12   82 1    
    27   13   14 ar   
    28   13   15 1    
    29   14   83 1    
    30   15   16 1    
    31   15   84 1    
    32   15   85 1    
    33   16   17 1    
    34   17   18 1    
    35   17   86 1    
    36   17   87 1    
    37   18   19 1    
    38   18   37 1    
    39   18   88 1    
    40   19   20 am   BACKBONE|DICT|INTERRES
    41   19   89 1    
    42   20   21 2    
    43   20   22 1    
    44   22   23 1    
    45   22   24 1    
    46   22   90 1    
    47   23   91 1    
    48   23   92 1    
    49   23   93 1    
    50   24   25 am   BACKBONE|DICT|INTERRES
    51   24   94 1    
    52   25   26 2    
    53   25   27 1    
    54   27   28 1    
    55   27   29 1    
    56   27   95 1    
    57   28   96 1    
    58   28   97 1    
    59   28   98 1    
    60   29   30 am   BACKBONE|DICT|INTERRES
    61   29   99 1    
    62   30   31 2    
    63   30   32 1    
    64   32   33 1    
    65   32   34 1    
    66   32  100 1    
    67   33  101 1    
    68   33  102 1    
    69   33  103 1    
    70   34   35 am   BACKBONE|DICT|INTERRES
    71   34  104 1    
    72   35   36 2    
    73   37   38 2    
    74   37   39 am   BACKBONE|DICT|INTERRES
    75   39   40 1    
    76   39  105 1    
    77   40   41 1    
    78   40   42 1    
    79   40  106 1    
    80   41  107 1    
    81   41  108 1    
    82   41  109 1    
    83   42   43 2    
    84   42   44 am   BACKBONE|DICT|INTERRES
    85   44   45 1    
    86   44  110 1    
    87   45   46 1    
    88   45   47 1    
    89   45  111 1    
    90   46  112 1    
    91   46  113 1    
    92   46  114 1    
    93   47   48 2    
    94   47   49 am   BACKBONE|DICT|INTERRES
    95   49   50 1    
    96   49  115 1    
    97   50   51 1    
    98   50   52 1    
    99   50  116 1    
   100   51  117 1    
   101   51  118 1    
   102   51  119 1    
   103   52   53 2    
   104   52   54 am   BACKBONE|DICT|INTERRES
   105   54   55 1    
   106   54  120 1    
   107   55   56 1    
   108   55   57 1    
   109   55  121 1    
   110   56  122 1    
   111   56  123 1    
   112   56  124 1    
   113   57   58 2    
   114   57   59 am   BACKBONE|DICT|INTERRES
   115   59   60 1    
   116   59  125 1    
   117   60   61 1    
   118   60   62 1    
   119   60  126 1    
   120   61  127 1    
   121   61  128 1    
   122   61  129 1    
   123   62   63 2    
   124   62   64 am   BACKBONE|DICT|INTERRES
   125   64   65 1    
   126   64  130 1    
   127   65   66 1    
   128   65   69 1    
   129   65  131 1    
   130   66   67 am   BACKBONE|DICT|INTERRES
   131   66   68 2    
   132   67  132 1    
   133   67  133 1    
   134   69   70 1    
   135   69  134 1    
   136   69  135 1    
   137   70   71 1    
   138   71  136 1    
   139   71  137 1    
@<TRIPOS>SUBSTRUCTURE
     1 UNK         1 GROUP             0       ****    0 ROOT    
