@<TRIPOS>MOLECULE
3R136
137   139    1
SMALL
USER_CHARGES


@<TRIPOS>ATOM
      1 CA         26.4274   22.3396    4.1450 C.3       0 UNK        -0.1979 
      2 C          26.4267   22.6029    2.6472 C.2       0 UNK         0.4864 
      3 O          25.3965   22.4245    1.9955 O.2       0 UNK        -0.5359 
      4 N          27.5743   23.0160    2.0944 N.am      1 UNK        -0.4318 
      5 CA         27.7318   23.3372    0.6742 C.3       1 UNK         0.0824 
      6 C6         29.2109   23.3095    0.2136 C.3       12 UNK        -0.0944 
      7 S7         29.9687   21.6586    0.3638 S.3       12 UNK        -0.2672 
      8 C8         31.7307   22.0849    0.6242 C.3       12 UNK         0.0333 
      9 C9         32.0503   22.8071    1.9360 C.ar      12 UNK        -0.0807 
     10 C10        33.2314   23.5537    2.0315 C.ar      12 UNK        -0.0894 
     11 C11        33.5622   24.2260    3.2141 C.ar      12 UNK        -0.0804 
     12 C12        32.6940   24.1549    4.3074 C.ar      12 UNK        -0.0824 
     13 C13        31.5054   23.4281    4.2223 C.ar      12 UNK        -0.0762 
     14 C14        31.2045   22.7347    3.0492 C.ar      12 UNK        -0.0782 
     15 C15        30.5295   23.3996    5.3854 C.3       12 UNK         0.0230 
     16 S16        29.1065   24.4870    5.0624 S.3       12 UNK        -0.2608 
     17 C17        29.8008   26.1401    5.4124 C.3       12 UNK        -0.0989 
     18 CA         29.3149   27.2548    4.4514 C.3       5 UNK         0.0716 
     19 N          29.8023   27.0629    3.0790 N.am      5 UNK        -0.4135 
     20 C          29.6343   27.9016    2.0445 C.2       4 UNK         0.5031 
     21 O          28.8399   28.8439    2.0345 O.2       4 UNK        -0.5229 
     22 CA         30.5237   27.6811    0.8124 C.3       4 UNK         0.0329 
     23 CB         31.6765   26.6738    1.0147 C.3       4 UNK        -0.2001 
     24 N          29.7118   27.2963   -0.3375 N.am      4 UNK        -0.4303 
     25 C          29.9938   27.6296   -1.6066 C.2       3 UNK         0.5044 
     26 O          30.9511   28.3374   -1.9236 O.2       3 UNK        -0.5152 
     27 CA         29.0998   27.0669   -2.7308 C.3       3 UNK         0.0319 
     28 CB         29.8992   26.0942   -3.6153 C.3       3 UNK        -0.2001 
     29 N          27.9123   26.3726   -2.2363 N.am      3 UNK        -0.4354 
     30 C          26.7880   26.9703   -1.8209 C.2       2 UNK         0.4964 
     31 O          26.5810   28.1780   -1.9210 O.2       2 UNK        -0.5047 
     32 CA         25.7254   26.0703   -1.1626 C.3       2 UNK         0.0288 
     33 CB         24.5937   25.7556   -2.1538 C.3       2 UNK        -0.2113 
     34 N          26.2728   24.8119   -0.6368 N.am      2 UNK        -0.4145 
     35 C          27.1299   24.7229    0.3905 C.2       1 UNK         0.5006 
     36 O          27.5073   25.6922    1.0551 O.2       1 UNK        -0.5103 
     37 C          27.8045   27.5343    4.6211 C.2       5 UNK         0.5055 
     38 O          27.4291   28.1519    5.6201 O.2       5 UNK        -0.5220 
     39 N          26.9603   27.0829    3.6816 N.am      6 UNK        -0.4450 
     40 CA         25.5171   27.3321    3.7228 C.3       6 UNK         0.0367 
     41 CB         24.7778   26.2196    2.9639 C.3       6 UNK        -0.1929 
     42 C          25.1238   28.7190    3.1802 C.2       6 UNK         0.5070 
     43 O          23.9995   29.1504    3.4393 O.2       6 UNK        -0.5237 
     44 N          26.0177   29.3850    2.4348 N.am      7 UNK        -0.4739 
     45 CA         25.7574   30.6734    1.7858 C.3       7 UNK         0.0276 
     46 CB         26.0285   30.5366    0.2804 C.3       7 UNK        -0.1927 
     47 C          26.5941   31.8220    2.3674 C.2       7 UNK         0.5013 
     48 O          26.1053   32.9526    2.3988 O.2       7 UNK        -0.5193 
     49 N          27.8282   31.5409    2.7998 N.am      8 UNK        -0.4253 
     50 CA         28.7826   32.5265    3.3113 C.3       8 UNK         0.0242 
     51 CB         29.5146   33.1882    2.1251 C.3       8 UNK        -0.2000 
     52 C          29.7643   31.8404    4.2695 C.2       8 UNK         0.4948 
     53 O          29.6565   30.6344    4.4870 O.2       8 UNK        -0.5275 
     54 N          30.7165   32.6081    4.8207 N.am      9 UNK        -0.4246 
     55 CA         31.8326   32.0774    5.6139 C.3       9 UNK         0.0261 
     56 CB         32.5994   33.2283    6.2883 C.3       9 UNK        -0.1959 
     57 C          32.7637   31.2015    4.7555 C.2       9 UNK         0.5033 
     58 O          32.9807   30.0388    5.0977 O.2       9 UNK        -0.5390 
     59 N          33.2247   31.7755    3.6310 N.am      10 UNK        -0.4215 
     60 CA         33.9438   31.1365    2.5210 C.3       10 UNK         0.0240 
     61 CB         32.9455   30.2842    1.7049 C.3       10 UNK        -0.1982 
     62 C          35.2072   30.3567    2.9512 C.2       10 UNK         0.4970 
     63 O          35.8682   30.7469    3.9164 O.2       10 UNK        -0.4916 
     64 N          35.5224   29.2877    2.2064 N.am      11 UNK        -0.4279 
     65 CA         36.5571   28.2782    2.4970 C.3       11 UNK         0.1003 
     66 C          38.0272   28.7964    2.4546 C.2       11 UNK         0.5709 
     67 N          38.3038   29.9463    1.8511 N.am      11 UNK        -0.7358 
     68 O          38.9398   28.1325    2.9416 O.2       11 UNK        -0.4999 
     69 C69        36.2415   27.4483    3.7765 C.3       12 UNK        -0.0954 
     70 S70        34.5516   26.7554    3.7712 S.3       12 UNK        -0.2268 
     71 C71        34.8594   25.0194    3.3202 C.3       12 UNK         0.0203 
     72 H72        26.1328   23.2383    4.6863 H         1 UNK         0.0888 
     73 H73        25.7241   21.5449    4.3928 H         1 UNK         0.0888 
     74 H74        27.4129   22.0325    4.4943 H         1 UNK         0.0888 
     75 H75        28.3704   23.2107    2.6834 H         1 UNK         0.3017 
     76 H76        27.1854   22.5916    0.0918 H         1 UNK         0.0873 
     77 H77        29.7945   24.0279    0.7887 H         1 UNK         0.0745 
     78 H78        29.2991   23.6123   -0.8316 H         1 UNK         0.0745 
     79 H79        32.0620   22.6921   -0.2199 H         1 UNK         0.0705 
     80 H80        32.3142   21.1642    0.5903 H         1 UNK         0.0705 
     81 H81        33.8980   23.6084    1.1814 H         1 UNK         0.1334 
     82 H82        32.9407   24.6803    5.2200 H         1 UNK         0.1417 
     83 H83        30.2967   22.1510    3.0091 H         1 UNK         0.1562 
     84 H84        31.0155   23.6913    6.3179 H         1 UNK         0.0748 
     85 H85        30.1701   22.3802    5.5338 H         1 UNK         0.0748 
     86 H86        30.8898   26.0945    5.3849 H         1 UNK         0.0940 
     87 H87        29.5536   26.3982    6.4441 H         1 UNK         0.0940 
     88 H88        29.8112   28.1639    4.7901 H         1 UNK         0.0703 
     89 H89        30.4406   26.2909    2.9582 H         1 UNK         0.3081 
     90 H90        30.9671   28.6566    0.6085 H         1 UNK         0.0719 
     91 H91        32.3334   26.6493    0.1453 H         1 UNK         0.0809 
     92 H92        32.2967   26.9479    1.8679 H         1 UNK         0.0809 
     93 H93        31.3154   25.6603    1.1790 H         1 UNK         0.0809 
     94 H94        28.8685   26.7756   -0.1246 H         1 UNK         0.2990 
     95 H95        28.7845   27.9102   -3.3491 H         1 UNK         0.0690 
     96 H96        30.7715   26.5857   -4.0486 H         1 UNK         0.0788 
     97 H97        29.2960   25.7235   -4.4443 H         1 UNK         0.0788 
     98 H98        30.2589   25.2344   -3.0486 H         1 UNK         0.0788 
     99 H99        27.9786   25.3696   -2.1533 H         1 UNK         0.2993 
    100 H100       25.3039   26.6373   -0.3310 H         1 UNK         0.0949 
    101 H101       24.9520   25.1798   -3.0082 H         1 UNK         0.0767 
    102 H102       23.7944   25.1886   -1.6761 H         1 UNK         0.0767 
    103 H103       24.1492   26.6732   -2.5424 H         1 UNK         0.0767 
    104 H104       25.9995   23.9674   -1.1197 H         1 UNK         0.3013 
    105 H105       27.3268   26.5994    2.8665 H         1 UNK         0.3121 
    106 H106       25.1828   27.2888    4.7617 H         1 UNK         0.0774 
    107 H107       25.0118   26.2314    1.9019 H         1 UNK         0.0815 
    108 H108       23.6974   26.3372    3.0569 H         1 UNK         0.0815 
    109 H109       25.0300   25.2347    3.3551 H         1 UNK         0.0815 
    110 H110       26.9440   28.9872    2.2980 H         1 UNK         0.2987 
    111 H111       24.7095   30.9572    1.9059 H         1 UNK         0.0949 
    112 H112       27.0498   30.2081    0.0809 H         1 UNK         0.0806 
    113 H113       25.3498   29.8153   -0.1742 H         1 UNK         0.0806 
    114 H114       25.8821   31.4865   -0.2357 H         1 UNK         0.0806 
    115 H115       28.1734   30.5837    2.7776 H         1 UNK         0.3010 
    116 H116       28.2470   33.2875    3.8828 H         1 UNK         0.0829 
    117 H117       28.8121   33.6686    1.4437 H         1 UNK         0.0813 
    118 H118       30.2085   33.9602    2.4580 H         1 UNK         0.0813 
    119 H119       30.0854   32.4575    1.5508 H         1 UNK         0.0813 
    120 H120       30.7248   33.5979    4.6207 H         1 UNK         0.3038 
    121 H121       31.4153   31.4454    6.4012 H         1 UNK         0.0769 
    122 H122       33.0042   33.9351    5.5634 H         1 UNK         0.0811 
    123 H123       33.4374   32.8455    6.8727 H         1 UNK         0.0811 
    124 H124       31.9569   33.7827    6.9727 H         1 UNK         0.0811 
    125 H125       33.0098   32.7522    3.4929 H         1 UNK         0.3204 
    126 H126       34.2938   31.9465    1.8796 H         1 UNK         0.0748 
    127 H127       33.3683   29.9522    0.7561 H         1 UNK         0.0771 
    128 H128       32.6325   29.4017    2.2646 H         1 UNK         0.0771 
    129 H129       32.0477   30.8533    1.4632 H         1 UNK         0.0771 
    130 H130       34.9338   29.0769    1.4149 H         1 UNK         0.2980 
    131 H131       36.5045   27.5824    1.6590 H         1 UNK         0.0545 
    132 H132       39.2577   30.2696    1.8170 H         1 UNK         0.3459 
    133 H133       37.5668   30.4984    1.4431 H         1 UNK         0.3459 
    134 H134       36.9558   26.6318    3.8948 H         1 UNK         0.0616 
    135 H135       36.3455   28.0717    4.6659 H         1 UNK         0.0616 
    136 H136       35.4990   24.5580    4.0738 H         1 UNK         0.0634 
    137 H137       35.4093   24.9919    2.3783 H         1 UNK         0.0634 
@<TRIPOS>BOND
     1    1    2 1    
     2    1   72 1    
     3    1   73 1    
     4    1   74 1    
     5    2    3 2    
     6    2    4 am   BACKBONE|DICT|INTERRES
     7    4    5 1    
     8    4   75 1    
     9    5    6 1    
    10    5   35 1    
    11    5   76 1    
    12    6    7 1    
    13    6   77 1    
    14    6   78 1    
    15    7    8 1    
    16    8    9 1    
    17    8   79 1    
    18    8   80 1    
    19    9   10 ar   
    20    9   14 ar   
    21   10   11 ar   
    22   10   81 1    
    23   11   12 ar   
    24   11   71 1    
    25   12   13 ar   
    26   12   82 1    
    27   13   14 ar   
    28   13   15 1    
    29   14   83 1    
    30   15   16 1    
    31   15   84 1    
    32   15   85 1    
    33   16   17 1    
    34   17   18 1    
    35   17   86 1    
    36   17   87 1    
    37   18   19 1    
    38   18   37 1    
    39   18   88 1    
    40   19   20 am   BACKBONE|DICT|INTERRES
    41   19   89 1    
    42   20   21 2    
    43   20   22 1    
    44   22   23 1    
    45   22   24 1    
    46   22   90 1    
    47   23   91 1    
    48   23   92 1    
    49   23   93 1    
    50   24   25 am   BACKBONE|DICT|INTERRES
    51   24   94 1    
    52   25   26 2    
    53   25   27 1    
    54   27   28 1    
    55   27   29 1    
    56   27   95 1    
    57   28   96 1    
    58   28   97 1    
    59   28   98 1    
    60   29   30 am   BACKBONE|DICT|INTERRES
    61   29   99 1    
    62   30   31 2    
    63   30   32 1    
    64   32   33 1    
    65   32   34 1    
    66   32  100 1    
    67   33  101 1    
    68   33  102 1    
    69   33  103 1    
    70   34   35 am   BACKBONE|DICT|INTERRES
    71   34  104 1    
    72   35   36 2    
    73   37   38 2    
    74   37   39 am   BACKBONE|DICT|INTERRES
    75   39   40 1    
    76   39  105 1    
    77   40   41 1    
    78   40   42 1    
    79   40  106 1    
    80   41  107 1    
    81   41  108 1    
    82   41  109 1    
    83   42   43 2    
    84   42   44 am   BACKBONE|DICT|INTERRES
    85   44   45 1    
    86   44  110 1    
    87   45   46 1    
    88   45   47 1    
    89   45  111 1    
    90   46  112 1    
    91   46  113 1    
    92   46  114 1    
    93   47   48 2    
    94   47   49 am   BACKBONE|DICT|INTERRES
    95   49   50 1    
    96   49  115 1    
    97   50   51 1    
    98   50   52 1    
    99   50  116 1    
   100   51  117 1    
   101   51  118 1    
   102   51  119 1    
   103   52   53 2    
   104   52   54 am   BACKBONE|DICT|INTERRES
   105   54   55 1    
   106   54  120 1    
   107   55   56 1    
   108   55   57 1    
   109   55  121 1    
   110   56  122 1    
   111   56  123 1    
   112   56  124 1    
   113   57   58 2    
   114   57   59 am   BACKBONE|DICT|INTERRES
   115   59   60 1    
   116   59  125 1    
   117   60   61 1    
   118   60   62 1    
   119   60  126 1    
   120   61  127 1    
   121   61  128 1    
   122   61  129 1    
   123   62   63 2    
   124   62   64 am   BACKBONE|DICT|INTERRES
   125   64   65 1    
   126   64  130 1    
   127   65   66 1    
   128   65   69 1    
   129   65  131 1    
   130   66   67 am   BACKBONE|DICT|INTERRES
   131   66   68 2    
   132   67  132 1    
   133   67  133 1    
   134   69   70 1    
   135   69  134 1    
   136   69  135 1    
   137   70   71 1    
   138   71  136 1    
   139   71  137 1    
@<TRIPOS>SUBSTRUCTURE
     1 UNK         1 GROUP             0       ****    0 ROOT    
