@<TRIPOS>MOLECULE
3R136
137   139    1
SMALL
USER_CHARGES


@<TRIPOS>ATOM
      1 CA         29.5420   25.0385    3.5646 C.3       0 UNK        -0.1979 
      2 C          28.7264   23.8371    3.1147 C.2       0 UNK         0.4864 
      3 O          27.5755   23.6845    3.5242 O.2       0 UNK        -0.5359 
      4 N          29.3203   22.9779    2.2762 N.am      1 UNK        -0.4318 
      5 CA         28.7104   21.7330    1.7839 C.3       1 UNK         0.0824 
      6 C6         29.7670   20.7456    1.2312 C.3       12 UNK        -0.0944 
      7 S7         31.0069   20.2838    2.4870 S.3       12 UNK        -0.2672 
      8 C8         32.5433   20.9226    1.7504 C.3       12 UNK         0.0333 
      9 C9         32.6028   22.4439    1.7601 C.ar      12 UNK        -0.0807 
     10 C10        32.8954   23.1232    2.9462 C.ar      12 UNK        -0.0894 
     11 C11        33.0207   24.5146    2.9521 C.ar      12 UNK        -0.0804 
     12 C12        32.8429   25.2259    1.7634 C.ar      12 UNK        -0.0824 
     13 C13        32.5325   24.5636    0.5695 C.ar      12 UNK        -0.0762 
     14 C14        32.4149   23.1695    0.5786 C.ar      12 UNK        -0.0782 
     15 C15        32.4057   25.3148   -0.7561 C.3       12 UNK         0.0230 
     16 S16        31.7716   27.0204   -0.6137 S.3       12 UNK        -0.2608 
     17 C17        29.9802   26.7334   -0.4765 C.3       12 UNK        -0.0989 
     18 CA         29.1978   28.0648   -0.3079 C.3       5 UNK         0.0716 
     19 N          27.9267   28.0307   -1.0362 N.am      5 UNK        -0.4135 
     20 C          27.3675   29.0749   -1.6635 C.2       4 UNK         0.5031 
     21 O          27.8834   30.1911   -1.7330 O.2       4 UNK        -0.5229 
     22 CA         26.0141   28.8379   -2.3621 C.3       4 UNK         0.0329 
     23 CB         26.2247   28.6004   -3.8666 C.3       4 UNK        -0.2001 
     24 N          25.2634   27.7113   -1.8025 N.am      4 UNK        -0.4303 
     25 C          24.5875   27.7489   -0.6457 C.2       3 UNK         0.5044 
     26 O          24.4492   28.7640    0.0350 O.2       3 UNK        -0.5152 
     27 CA         23.9786   26.4239   -0.1490 C.3       3 UNK         0.0319 
     28 CB         22.5078   26.3151   -0.5823 C.3       3 UNK        -0.2001 
     29 N          24.6996   25.2172   -0.5764 N.am      3 UNK        -0.4354 
     30 C          25.9809   24.9436   -0.2969 C.2       2 UNK         0.4964 
     31 O          26.7430   25.7245    0.2795 O.2       2 UNK        -0.5047 
     32 CA         26.5232   23.6032   -0.7964 C.3       2 UNK         0.0288 
     33 CB         27.1418   23.7634   -2.1953 C.3       2 UNK        -0.2113 
     34 N          27.5542   23.1579    0.1354 N.am      2 UNK        -0.4145 
     35 C          27.5967   21.9642    0.7387 C.2       1 UNK         0.5006 
     36 O          26.8025   21.0521    0.4999 O.2       1 UNK        -0.5103 
     37 C          28.9679   28.4163    1.1766 C.2       5 UNK         0.5055 
     38 O          29.7871   29.1160    1.7732 O.2       5 UNK        -0.5220 
     39 N          27.8532   27.9288    1.7402 N.am      6 UNK        -0.4450 
     40 CA         27.3701   28.2291    3.0876 C.3       6 UNK         0.0367 
     41 CB         26.1736   27.3107    3.3884 C.3       6 UNK        -0.1929 
     42 C          26.9718   29.7061    3.2701 C.2       6 UNK         0.5070 
     43 O          26.7121   30.4089    2.2912 O.2       6 UNK        -0.5237 
     44 N          26.9079   30.1310    4.5414 N.am      7 UNK        -0.4739 
     45 CA         26.5855   31.4896    5.0075 C.3       7 UNK         0.0276 
     46 CB         25.1303   31.8692    4.6565 C.3       7 UNK        -0.1927 
     47 C          27.6115   32.5508    4.5558 C.2       7 UNK         0.5013 
     48 O          27.2535   33.7127    4.3522 O.2       7 UNK        -0.5193 
     49 N          28.8743   32.1322    4.4285 N.am      8 UNK        -0.4253 
     50 CA         30.0281   32.9477    4.0720 C.3       8 UNK         0.0242 
     51 CB         30.1534   33.0266    2.5396 C.3       8 UNK        -0.2000 
     52 C          31.2689   32.2976    4.6910 C.2       8 UNK         0.4948 
     53 O          31.2497   31.0980    4.9854 O.2       8 UNK        -0.5275 
     54 N          32.3457   33.0774    4.8445 N.am      9 UNK        -0.4246 
     55 CA         33.6344   32.6439    5.3990 C.3       9 UNK         0.0261 
     56 CB         34.3944   33.8793    5.9185 C.3       9 UNK        -0.1959 
     57 C          34.4671   31.8111    4.3997 C.2       9 UNK         0.5033 
     58 O          35.6429   32.1063    4.1769 O.2       9 UNK        -0.5390 
     59 N          33.8393   30.7901    3.8031 N.am      10 UNK        -0.4215 
     60 CA         34.4515   29.8653    2.8464 C.3       10 UNK         0.0240 
     61 CB         33.3439   29.1475    2.0607 C.3       10 UNK        -0.1982 
     62 C          35.3933   28.8492    3.5163 C.2       10 UNK         0.4970 
     63 O          36.3420   28.3978    2.8739 O.2       10 UNK        -0.4916 
     64 N          35.1229   28.5297    4.7868 N.am      11 UNK        -0.4279 
     65 CA         35.9563   27.7039    5.6678 C.3       11 UNK         0.1003 
     66 C          36.2511   28.4775    6.9786 C.2       11 UNK         0.5709 
     67 N          37.3577   28.1729    7.6424 N.am      11 UNK        -0.7358 
     68 O          35.4774   29.3302    7.4140 O.2       11 UNK        -0.4999 
     69 C69        35.2974   26.3323    5.9740 C.3       12 UNK        -0.0954 
     70 S70        35.1682   25.2708    4.4978 S.3       12 UNK        -0.2268 
     71 C71        33.3705   25.2506    4.2353 C.3       12 UNK         0.0203 
     72 H72        30.0047   25.5416    2.7165 H         1 UNK         0.0888 
     73 H73        30.3252   24.7239    4.2531 H         1 UNK         0.0888 
     74 H74        28.9102   25.7581    4.0824 H         1 UNK         0.0888 
     75 H75        30.2851   23.1257    2.0104 H         1 UNK         0.3017 
     76 H76        28.2265   21.2505    2.6362 H         1 UNK         0.0873 
     77 H77        29.2884   19.8216    0.9004 H         1 UNK         0.0745 
     78 H78        30.2590   21.1592    0.3495 H         1 UNK         0.0745 
     79 H79        33.3899   20.5284    2.3146 H         1 UNK         0.0705 
     80 H80        32.6503   20.5329    0.7367 H         1 UNK         0.0705 
     81 H81        33.0489   22.5660    3.8607 H         1 UNK         0.1334 
     82 H82        32.9687   26.2979    1.7706 H         1 UNK         0.1417 
     83 H83        32.2085   22.6444   -0.3446 H         1 UNK         0.1562 
     84 H84        31.7732   24.7608   -1.4517 H         1 UNK         0.0748 
     85 H85        33.3957   25.3588   -1.2116 H         1 UNK         0.0748 
     86 H86        29.7749   26.0250    0.3280 H         1 UNK         0.0940 
     87 H87        29.6769   26.2299   -1.3960 H         1 UNK         0.0940 
     88 H88        29.7978   28.8735   -0.7317 H         1 UNK         0.0703 
     89 H89        27.4036   27.1666   -0.9697 H         1 UNK         0.3081 
     90 H90        25.4192   29.7460   -2.2412 H         1 UNK         0.0719 
     91 H91        26.8105   27.7002   -4.0571 H         1 UNK         0.0809 
     92 H92        25.2735   28.5005   -4.3899 H         1 UNK         0.0809 
     93 H93        26.7563   29.4370   -4.3226 H         1 UNK         0.0809 
     94 H94        25.2973   26.8386   -2.3090 H         1 UNK         0.2990 
     95 H95        24.0085   26.4468    0.9421 H         1 UNK         0.0690 
     96 H96        22.0286   25.4377   -0.1474 H         1 UNK         0.0788 
     97 H97        22.4095   26.2503   -1.6668 H         1 UNK         0.0788 
     98 H98        21.9386   27.1867   -0.2552 H         1 UNK         0.0788 
     99 H99        24.1569   24.5292   -1.0795 H         1 UNK         0.2993 
    100 H100       25.7019   22.8844   -0.8396 H         1 UNK         0.0949 
    101 H101       27.9517   24.4940   -2.2006 H         1 UNK         0.0767 
    102 H102       27.5459   22.8174   -2.5563 H         1 UNK         0.0767 
    103 H103       26.3966   24.0936   -2.9201 H         1 UNK         0.0767 
    104 H104       28.1822   23.8806    0.4575 H         1 UNK         0.3013 
    105 H105       27.2672   27.3139    1.1845 H         1 UNK         0.3121 
    106 H106       28.1783   28.0067    3.7866 H         1 UNK         0.0774 
    107 H107       25.8296   27.4318    4.4161 H         1 UNK         0.0815 
    108 H108       25.3291   27.5314    2.7345 H         1 UNK         0.0815 
    109 H109       26.4316   26.2597    3.2561 H         1 UNK         0.0815 
    110 H110       27.1290   29.4680    5.2724 H         1 UNK         0.2987 
    111 H111       26.6568   31.4602    6.0960 H         1 UNK         0.0949 
    112 H112       24.9916   31.9975    3.5826 H         1 UNK         0.0806 
    113 H113       24.4279   31.1087    4.9973 H         1 UNK         0.0806 
    114 H114       24.8452   32.8079    5.1331 H         1 UNK         0.0806 
    115 H115       29.1055   31.1714    4.6510 H         1 UNK         0.3010 
    116 H116       29.9118   33.9498    4.4907 H         1 UNK         0.0829 
    117 H117       29.2715   33.4866    2.0933 H         1 UNK         0.0813 
    118 H118       31.0158   33.6244    2.2425 H         1 UNK         0.0813 
    119 H119       30.2714   32.0362    2.0963 H         1 UNK         0.0813 
    120 H120       32.2941   34.0385    4.5371 H         1 UNK         0.3038 
    121 H121       33.4396   31.9963    6.2570 H         1 UNK         0.0769 
    122 H122       34.6395   34.5715    5.1120 H         1 UNK         0.0811 
    123 H123       35.3314   33.5900    6.3967 H         1 UNK         0.0811 
    124 H124       33.8104   34.4218    6.6622 H         1 UNK         0.0811 
    125 H125       32.8660   30.6329    4.0549 H         1 UNK         0.3204 
    126 H126       35.0455   30.4485    2.1394 H         1 UNK         0.0748 
    127 H127       33.7719   28.4826    1.3098 H         1 UNK         0.0771 
    128 H128       32.7060   28.5479    2.7114 H         1 UNK         0.0771 
    129 H129       32.7046   29.8565    1.5339 H         1 UNK         0.0771 
    130 H130       34.3596   29.0005    5.2507 H         1 UNK         0.2980 
    131 H131       36.9203   27.5238    5.1877 H         1 UNK         0.0545 
    132 H132       37.9943   27.4691    7.3020 H         1 UNK         0.3459 
    133 H133       37.5609   28.6580    8.5024 H         1 UNK         0.3459 
    134 H134       34.3118   26.4688    6.4229 H         1 UNK         0.0616 
    135 H135       35.8889   25.7814    6.7077 H         1 UNK         0.0616 
    136 H136       32.8845   24.7719    5.0868 H         1 UNK         0.0634 
    137 H137       32.9976   26.2756    4.1975 H         1 UNK         0.0634 
@<TRIPOS>BOND
     1    1    2 1    
     2    1   72 1    
     3    1   73 1    
     4    1   74 1    
     5    2    3 2    
     6    2    4 am   BACKBONE|DICT|INTERRES
     7    4    5 1    
     8    4   75 1    
     9    5    6 1    
    10    5   35 1    
    11    5   76 1    
    12    6    7 1    
    13    6   77 1    
    14    6   78 1    
    15    7    8 1    
    16    8    9 1    
    17    8   79 1    
    18    8   80 1    
    19    9   10 ar   
    20    9   14 ar   
    21   10   11 ar   
    22   10   81 1    
    23   11   12 ar   
    24   11   71 1    
    25   12   13 ar   
    26   12   82 1    
    27   13   14 ar   
    28   13   15 1    
    29   14   83 1    
    30   15   16 1    
    31   15   84 1    
    32   15   85 1    
    33   16   17 1    
    34   17   18 1    
    35   17   86 1    
    36   17   87 1    
    37   18   19 1    
    38   18   37 1    
    39   18   88 1    
    40   19   20 am   BACKBONE|DICT|INTERRES
    41   19   89 1    
    42   20   21 2    
    43   20   22 1    
    44   22   23 1    
    45   22   24 1    
    46   22   90 1    
    47   23   91 1    
    48   23   92 1    
    49   23   93 1    
    50   24   25 am   BACKBONE|DICT|INTERRES
    51   24   94 1    
    52   25   26 2    
    53   25   27 1    
    54   27   28 1    
    55   27   29 1    
    56   27   95 1    
    57   28   96 1    
    58   28   97 1    
    59   28   98 1    
    60   29   30 am   BACKBONE|DICT|INTERRES
    61   29   99 1    
    62   30   31 2    
    63   30   32 1    
    64   32   33 1    
    65   32   34 1    
    66   32  100 1    
    67   33  101 1    
    68   33  102 1    
    69   33  103 1    
    70   34   35 am   BACKBONE|DICT|INTERRES
    71   34  104 1    
    72   35   36 2    
    73   37   38 2    
    74   37   39 am   BACKBONE|DICT|INTERRES
    75   39   40 1    
    76   39  105 1    
    77   40   41 1    
    78   40   42 1    
    79   40  106 1    
    80   41  107 1    
    81   41  108 1    
    82   41  109 1    
    83   42   43 2    
    84   42   44 am   BACKBONE|DICT|INTERRES
    85   44   45 1    
    86   44  110 1    
    87   45   46 1    
    88   45   47 1    
    89   45  111 1    
    90   46  112 1    
    91   46  113 1    
    92   46  114 1    
    93   47   48 2    
    94   47   49 am   BACKBONE|DICT|INTERRES
    95   49   50 1    
    96   49  115 1    
    97   50   51 1    
    98   50   52 1    
    99   50  116 1    
   100   51  117 1    
   101   51  118 1    
   102   51  119 1    
   103   52   53 2    
   104   52   54 am   BACKBONE|DICT|INTERRES
   105   54   55 1    
   106   54  120 1    
   107   55   56 1    
   108   55   57 1    
   109   55  121 1    
   110   56  122 1    
   111   56  123 1    
   112   56  124 1    
   113   57   58 2    
   114   57   59 am   BACKBONE|DICT|INTERRES
   115   59   60 1    
   116   59  125 1    
   117   60   61 1    
   118   60   62 1    
   119   60  126 1    
   120   61  127 1    
   121   61  128 1    
   122   61  129 1    
   123   62   63 2    
   124   62   64 am   BACKBONE|DICT|INTERRES
   125   64   65 1    
   126   64  130 1    
   127   65   66 1    
   128   65   69 1    
   129   65  131 1    
   130   66   67 am   BACKBONE|DICT|INTERRES
   131   66   68 2    
   132   67  132 1    
   133   67  133 1    
   134   69   70 1    
   135   69  134 1    
   136   69  135 1    
   137   70   71 1    
   138   71  136 1    
   139   71  137 1    
@<TRIPOS>SUBSTRUCTURE
     1 UNK         1 GROUP             0       ****    0 ROOT    
