@<TRIPOS>MOLECULE
3R136
137   139    1
SMALL
USER_CHARGES


@<TRIPOS>ATOM
      1 CA         29.8231   24.6127    3.7821 C.3       0 UNK        -0.1979 
      2 C          29.0686   23.4233    3.2162 C.2       0 UNK         0.4864 
      3 O          27.9787   23.1050    3.6919 O.2       0 UNK        -0.5359 
      4 N          29.6385   22.7677    2.1971 N.am      1 UNK        -0.4318 
      5 CA         29.0690   21.5807    1.5447 C.3       1 UNK         0.0824 
      6 C6         30.1394   20.7853    0.7589 C.3       12 UNK        -0.0944 
      7 S7         31.5057   20.2235    1.8303 S.3       12 UNK        -0.2672 
      8 C8         32.9523   20.9871    1.0338 C.3       12 UNK         0.0333 
      9 C9         33.0339   22.4871    1.2824 C.ar      12 UNK        -0.0807 
     10 C10        33.5444   22.9697    2.4918 C.ar      12 UNK        -0.0894 
     11 C11        33.7040   24.3435    2.6990 C.ar      12 UNK        -0.0804 
     12 C12        33.3369   25.2363    1.6878 C.ar      12 UNK        -0.0824 
     13 C13        32.7944   24.7690    0.4876 C.ar      12 UNK        -0.0762 
     14 C14        32.6525   23.3925    0.2870 C.ar      12 UNK        -0.0782 
     15 C15        32.3925   25.7483   -0.6066 C.3       12 UNK         0.0230 
     16 S16        30.5860   25.8378   -0.8074 S.3       12 UNK        -0.2608 
     17 C17        30.0622   26.6463    0.7422 C.3       12 UNK        -0.0989 
     18 CA         29.3748   28.0190    0.5187 C.3       5 UNK         0.0716 
     19 N          28.2796   27.9581   -0.4477 N.am      5 UNK        -0.4135 
     20 C          27.8887   28.9688   -1.2362 C.2       4 UNK         0.5031 
     21 O          28.4534   30.0620   -1.2858 O.2       4 UNK        -0.5229 
     22 CA         26.6585   28.7217   -2.1311 C.3       4 UNK         0.0329 
     23 CB         27.0988   28.2576   -3.5291 C.3       4 UNK        -0.2001 
     24 N          25.7337   27.7361   -1.5672 N.am      4 UNK        -0.4303 
     25 C          24.9742   27.9381   -0.4806 C.2       3 UNK         0.5044 
     26 O          24.8602   29.0283    0.0781 O.2       3 UNK        -0.5152 
     27 CA         24.2410   26.7132    0.1007 C.3       3 UNK         0.0319 
     28 CB         22.7632   26.7206   -0.3216 C.3       3 UNK        -0.2001 
     29 N          24.8433   25.4249   -0.2681 N.am      3 UNK        -0.4354 
     30 C          26.0698   25.0192    0.0878 C.2       2 UNK         0.4964 
     31 O          26.8445   25.6910    0.7763 O.2       2 UNK        -0.5047 
     32 CA         26.5309   23.6772   -0.4877 C.3       2 UNK         0.0288 
     33 CB         26.9877   23.8416   -1.9485 C.3       2 UNK        -0.2113 
     34 N          27.6466   23.1781    0.3080 N.am      2 UNK        -0.4145 
     35 C          27.8576   21.8986    0.6391 C.2       1 UNK         0.5006 
     36 O          27.1400   20.9726    0.2553 O.2       1 UNK        -0.5103 
     37 C          28.8340   28.5822    1.8441 C.2       5 UNK         0.5055 
     38 O          29.3235   29.6135    2.3087 O.2       5 UNK        -0.5220 
     39 N          27.8220   27.8946    2.4062 N.am      6 UNK        -0.4450 
     40 CA         27.1191   28.1891    3.6628 C.3       6 UNK         0.0367 
     41 CB         26.0545   29.2817    3.4183 C.3       6 UNK        -0.1929 
     42 C          28.0951   28.5085    4.8142 C.2       6 UNK         0.5070 
     43 O          28.8587   27.6331    5.2179 O.2       6 UNK        -0.5237 
     44 N          28.0887   29.7622    5.2750 N.am      7 UNK        -0.4739 
     45 CA         29.1297   30.3647    6.1066 C.3       7 UNK         0.0276 
     46 CB         28.6175   30.5072    7.5514 C.3       7 UNK        -0.1927 
     47 C          29.5597   31.7112    5.4946 C.2       7 UNK         0.5013 
     48 O          30.0047   32.6024    6.2201 O.2       7 UNK        -0.5193 
     49 N          29.4082   31.8570    4.1689 N.am      8 UNK        -0.4253 
     50 CA         29.6603   33.0857    3.4149 C.3       8 UNK         0.0242 
     51 CB         28.7713   33.0864    2.1565 C.3       8 UNK        -0.2000 
     52 C          31.1544   33.2192    3.0834 C.2       8 UNK         0.4948 
     53 O          31.5400   33.1411    1.9156 O.2       8 UNK        -0.5275 
     54 N          31.9784   33.3514    4.1323 N.am      9 UNK        -0.4246 
     55 CA         33.4477   33.4402    4.1548 C.3       9 UNK         0.0261 
     56 CB         33.9531   34.6701    3.3758 C.3       9 UNK        -0.1959 
     57 C          34.1795   32.1613    3.7027 C.2       9 UNK         0.5033 
     58 O          35.1889   31.8082    4.3123 O.2       9 UNK        -0.5390 
     59 N          33.6526   31.4757    2.6797 N.am      10 UNK        -0.4215 
     60 CA         34.1676   30.2320    2.0980 C.3       10 UNK         0.0240 
     61 CB         33.2938   29.8437    0.8935 C.3       10 UNK        -0.1982 
     62 C          34.2544   29.0555    3.0857 C.2       10 UNK         0.4970 
     63 O          35.1352   28.2109    2.9279 O.2       10 UNK        -0.4916 
     64 N          33.3509   29.0247    4.0717 N.am      11 UNK        -0.4279 
     65 CA         33.2931   28.0241    5.1466 C.3       11 UNK         0.1003 
     66 C          32.9364   28.6544    6.5245 C.2       11 UNK         0.5709 
     67 N          33.1520   29.9506    6.7233 N.am      11 UNK        -0.7358 
     68 O          32.4683   27.9715    7.4314 O.2       11 UNK        -0.4999 
     69 C69        32.4065   26.8083    4.7466 C.3       12 UNK        -0.0954 
     70 S70        33.0988   25.2082    5.2877 S.3       12 UNK        -0.2268 
     71 C71        34.3287   24.8556    3.9905 C.3       12 UNK         0.0203 
     72 H72        29.2228   25.5159    3.6878 H         1 UNK         0.0888 
     73 H73        30.0372   24.4567    4.8389 H         1 UNK         0.0888 
     74 H74        30.7678   24.7743    3.2647 H         1 UNK         0.0888 
     75 H75        30.5546   23.0452    1.8708 H         1 UNK         0.3017 
     76 H76        28.6894   20.9266    2.3330 H         1 UNK         0.0873 
     77 H77        29.6983   19.8939    0.3083 H         1 UNK         0.0745 
     78 H78        30.5280   21.3786   -0.0700 H         1 UNK         0.0745 
     79 H79        32.9379   20.7698   -0.0355 H         1 UNK         0.0705 
     80 H80        33.8534   20.5107    1.4230 H         1 UNK         0.0705 
     81 H81        33.8439   22.2721    3.2624 H         1 UNK         0.1334 
     82 H82        33.4854   26.2972    1.8312 H         1 UNK         0.1417 
     83 H83        32.2601   23.0304   -0.6539 H         1 UNK         0.1562 
     84 H84        32.8361   25.4315   -1.5515 H         1 UNK         0.0748 
     85 H85        32.7834   26.7468   -0.4063 H         1 UNK         0.0748 
     86 H86        30.9208   26.7694    1.4038 H         1 UNK         0.0940 
     87 H87        29.3960   25.9486    1.2476 H         1 UNK         0.0940 
     88 H88        30.1336   28.7105    0.1458 H         1 UNK         0.0703 
     89 H89        27.7336   27.1068   -0.4348 H         1 UNK         0.3081 
     90 H90        26.1273   29.6704   -2.2345 H         1 UNK         0.0719 
     91 H91        27.6309   27.3059   -3.4913 H         1 UNK         0.0809 
     92 H92        26.2449   28.1403   -4.1965 H         1 UNK         0.0809 
     93 H93        27.7686   28.9865   -3.9879 H         1 UNK         0.0809 
     94 H94        25.7336   26.8174   -1.9848 H         1 UNK         0.2990 
     95 H95        24.2865   26.7994    1.1886 H         1 UNK         0.0690 
     96 H96        22.2091   25.9124    0.1563 H         1 UNK         0.0788 
     97 H97        22.6505   26.6146   -1.4014 H         1 UNK         0.0788 
     98 H98        22.2796   27.6554   -0.0338 H         1 UNK         0.0788 
     99 H99        24.2796   24.8169   -0.8457 H         1 UNK         0.2993 
    100 H100       25.6925   22.9786   -0.4376 H         1 UNK         0.0949 
    101 H101       27.8113   24.5520   -2.0362 H         1 UNK         0.0767 
    102 H102       27.3243   22.8916   -2.3643 H         1 UNK         0.0767 
    103 H103       26.1750   24.1989   -2.5820 H         1 UNK         0.0767 
    104 H104       28.2318   23.8935    0.7168 H         1 UNK         0.3013 
    105 H105       27.4940   27.0638    1.9190 H         1 UNK         0.3121 
    106 H106       26.5980   27.2750    3.9518 H         1 UNK         0.0774 
    107 H107       25.5140   29.5266    4.3336 H         1 UNK         0.0815 
    108 H108       26.4884   30.2008    3.0221 H         1 UNK         0.0815 
    109 H109       25.3099   28.9390    2.7008 H         1 UNK         0.0815 
    110 H110       27.4160   30.4070    4.8832 H         1 UNK         0.2987 
    111 H111       30.0193   29.7313    6.1145 H         1 UNK         0.0949 
    112 H112       27.7582   31.1761    7.6100 H         1 UNK         0.0806 
    113 H113       28.3207   29.5417    7.9612 H         1 UNK         0.0806 
    114 H114       29.3928   30.9093    8.2049 H         1 UNK         0.0806 
    115 H115       29.1744   31.0376    3.6117 H         1 UNK         0.3010 
    116 H116       29.3783   33.9481    4.0230 H         1 UNK         0.0829 
    117 H117       27.7143   33.0336    2.4173 H         1 UNK         0.0813 
    118 H118       28.9169   33.9984    1.5761 H         1 UNK         0.0813 
    119 H119       28.9957   32.2435    1.5009 H         1 UNK         0.0813 
    120 H120       31.5345   33.3315    5.0463 H         1 UNK         0.3038 
    121 H121       33.7112   33.5903    5.2032 H         1 UNK         0.0769 
    122 H122       33.7466   34.5932    2.3079 H         1 UNK         0.0811 
    123 H123       35.0323   34.7835    3.4877 H         1 UNK         0.0811 
    124 H124       33.4919   35.5876    3.7412 H         1 UNK         0.0811 
    125 H125       32.8403   31.8959    2.2296 H         1 UNK         0.3204 
    126 H126       35.1795   30.4339    1.7412 H         1 UNK         0.0748 
    127 H127       33.6687   28.9389    0.4135 H         1 UNK         0.0771 
    128 H128       32.2607   29.6554    1.1895 H         1 UNK         0.0771 
    129 H129       33.2868   30.6298    0.1381 H         1 UNK         0.0771 
    130 H130       32.6603   29.7588    4.1198 H         1 UNK         0.2980 
    131 H131       34.3129   27.6659    5.2967 H         1 UNK         0.0545 
    132 H132       32.9270   30.3481    7.6216 H         1 UNK         0.3459 
    133 H133       33.6398   30.5035    6.0367 H         1 UNK         0.3459 
    134 H134       32.2553   26.7704    3.6699 H         1 UNK         0.0616 
    135 H135       31.4024   26.9040    5.1609 H         1 UNK         0.0616 
    136 H136       35.0267   24.1112    4.3762 H         1 UNK         0.0634 
    137 H137       34.9255   25.7464    3.7968 H         1 UNK         0.0634 
@<TRIPOS>BOND
     1    1    2 1    
     2    1   72 1    
     3    1   73 1    
     4    1   74 1    
     5    2    3 2    
     6    2    4 am   BACKBONE|DICT|INTERRES
     7    4    5 1    
     8    4   75 1    
     9    5    6 1    
    10    5   35 1    
    11    5   76 1    
    12    6    7 1    
    13    6   77 1    
    14    6   78 1    
    15    7    8 1    
    16    8    9 1    
    17    8   79 1    
    18    8   80 1    
    19    9   10 ar   
    20    9   14 ar   
    21   10   11 ar   
    22   10   81 1    
    23   11   12 ar   
    24   11   71 1    
    25   12   13 ar   
    26   12   82 1    
    27   13   14 ar   
    28   13   15 1    
    29   14   83 1    
    30   15   16 1    
    31   15   84 1    
    32   15   85 1    
    33   16   17 1    
    34   17   18 1    
    35   17   86 1    
    36   17   87 1    
    37   18   19 1    
    38   18   37 1    
    39   18   88 1    
    40   19   20 am   BACKBONE|DICT|INTERRES
    41   19   89 1    
    42   20   21 2    
    43   20   22 1    
    44   22   23 1    
    45   22   24 1    
    46   22   90 1    
    47   23   91 1    
    48   23   92 1    
    49   23   93 1    
    50   24   25 am   BACKBONE|DICT|INTERRES
    51   24   94 1    
    52   25   26 2    
    53   25   27 1    
    54   27   28 1    
    55   27   29 1    
    56   27   95 1    
    57   28   96 1    
    58   28   97 1    
    59   28   98 1    
    60   29   30 am   BACKBONE|DICT|INTERRES
    61   29   99 1    
    62   30   31 2    
    63   30   32 1    
    64   32   33 1    
    65   32   34 1    
    66   32  100 1    
    67   33  101 1    
    68   33  102 1    
    69   33  103 1    
    70   34   35 am   BACKBONE|DICT|INTERRES
    71   34  104 1    
    72   35   36 2    
    73   37   38 2    
    74   37   39 am   BACKBONE|DICT|INTERRES
    75   39   40 1    
    76   39  105 1    
    77   40   41 1    
    78   40   42 1    
    79   40  106 1    
    80   41  107 1    
    81   41  108 1    
    82   41  109 1    
    83   42   43 2    
    84   42   44 am   BACKBONE|DICT|INTERRES
    85   44   45 1    
    86   44  110 1    
    87   45   46 1    
    88   45   47 1    
    89   45  111 1    
    90   46  112 1    
    91   46  113 1    
    92   46  114 1    
    93   47   48 2    
    94   47   49 am   BACKBONE|DICT|INTERRES
    95   49   50 1    
    96   49  115 1    
    97   50   51 1    
    98   50   52 1    
    99   50  116 1    
   100   51  117 1    
   101   51  118 1    
   102   51  119 1    
   103   52   53 2    
   104   52   54 am   BACKBONE|DICT|INTERRES
   105   54   55 1    
   106   54  120 1    
   107   55   56 1    
   108   55   57 1    
   109   55  121 1    
   110   56  122 1    
   111   56  123 1    
   112   56  124 1    
   113   57   58 2    
   114   57   59 am   BACKBONE|DICT|INTERRES
   115   59   60 1    
   116   59  125 1    
   117   60   61 1    
   118   60   62 1    
   119   60  126 1    
   120   61  127 1    
   121   61  128 1    
   122   61  129 1    
   123   62   63 2    
   124   62   64 am   BACKBONE|DICT|INTERRES
   125   64   65 1    
   126   64  130 1    
   127   65   66 1    
   128   65   69 1    
   129   65  131 1    
   130   66   67 am   BACKBONE|DICT|INTERRES
   131   66   68 2    
   132   67  132 1    
   133   67  133 1    
   134   69   70 1    
   135   69  134 1    
   136   69  135 1    
   137   70   71 1    
   138   71  136 1    
   139   71  137 1    
@<TRIPOS>SUBSTRUCTURE
     1 UNK         1 GROUP             0       ****    0 ROOT    
