@<TRIPOS>MOLECULE
3R136
137   139    1
SMALL
USER_CHARGES


@<TRIPOS>ATOM
      1 CA         26.7165   21.3351   -2.1807 C.3       0 UNK        -0.1979 
      2 C          27.7085   21.7505   -1.1049 C.2       0 UNK         0.4864 
      3 O          28.1426   22.9022   -1.0869 O.2       0 UNK        -0.5359 
      4 N          28.0739   20.8220   -0.2112 N.am      1 UNK        -0.4318 
      5 CA         28.9713   21.0589    0.9204 C.3       1 UNK         0.0824 
      6 C6         29.6844   19.7500    1.3452 C.3       12 UNK        -0.0944 
      7 S7         30.9990   19.9876    2.5902 S.3       12 UNK        -0.2672 
      8 C8         32.4646   20.3162    1.5591 C.3       12 UNK         0.0333 
      9 C9         32.5476   21.7813    1.1553 C.ar      12 UNK        -0.0807 
     10 C10        32.9507   22.7373    2.0910 C.ar      12 UNK        -0.0894 
     11 C11        33.0380   24.0846    1.7344 C.ar      12 UNK        -0.0804 
     12 C12        32.7213   24.4733    0.4300 C.ar      12 UNK        -0.0824 
     13 C13        32.2773   23.5340   -0.5120 C.ar      12 UNK        -0.0762 
     14 C14        32.2209   22.1852   -0.1432 C.ar      12 UNK        -0.0782 
     15 C15        31.8452   23.9136   -1.9326 C.3       12 UNK         0.0230 
     16 S16        31.5598   25.6927   -2.2470 S.3       12 UNK        -0.2608 
     17 C17        30.1817   26.0623   -1.1044 C.3       12 UNK        -0.0989 
     18 CA         29.3427   27.3103   -1.4806 C.3       5 UNK         0.0716 
     19 N          28.2148   27.4715   -0.5569 N.am      5 UNK        -0.4135 
     20 C          27.2231   28.3663   -0.6952 C.2       4 UNK         0.5031 
     21 O          27.0795   29.0747   -1.6916 O.2       4 UNK        -0.5229 
     22 CA         26.2277   28.5303    0.4721 C.3       4 UNK         0.0329 
     23 CB         24.9003   27.8279    0.1439 C.3       4 UNK        -0.2001 
     24 N          26.7124   28.0436    1.7667 N.am      4 UNK        -0.4303 
     25 C          27.7979   28.4792    2.4230 C.2       3 UNK         0.5044 
     26 O          28.5063   29.4071    2.0331 O.2       3 UNK        -0.5152 
     27 CA         28.1930   27.7084    3.6969 C.3       3 UNK         0.0319 
     28 CB         27.5882   28.3926    4.9319 C.3       3 UNK        -0.2001 
     29 N          27.8075   26.2891    3.7046 N.am      3 UNK        -0.4354 
     30 C          28.0941   25.3878    2.7542 C.2       2 UNK         0.4964 
     31 O          28.7152   25.6491    1.7200 O.2       2 UNK        -0.5047 
     32 CA         27.5218   23.9814    2.9604 C.3       2 UNK         0.0288 
     33 CB         25.9970   23.9746    2.7271 C.3       2 UNK        -0.2113 
     34 N          28.1764   23.0865    2.0151 N.am      2 UNK        -0.4145 
     35 C          28.1932   21.7514    2.0563 C.2       1 UNK         0.5006 
     36 O          27.6046   21.0788    2.9063 O.2       1 UNK        -0.5103 
     37 C          30.1997   28.5961   -1.5399 C.2       5 UNK         0.5055 
     38 O          30.5181   29.0689   -2.6328 O.2       5 UNK        -0.5220 
     39 N          30.5329   29.1471   -0.3645 N.am      6 UNK        -0.4450 
     40 CA         31.2956   30.3894   -0.2232 C.3       6 UNK         0.0367 
     41 CB         32.1175   30.3139    1.0709 C.3       6 UNK        -0.1929 
     42 C          30.3967   31.6358   -0.1925 C.2       6 UNK         0.5070 
     43 O          30.8845   32.7305   -0.4733 O.2       6 UNK        -0.5237 
     44 N          29.1244   31.4481    0.1882 N.am      7 UNK        -0.4739 
     45 CA         28.1325   32.4673    0.5457 C.3       7 UNK         0.0276 
     46 CB         27.8022   33.3902   -0.6466 C.3       7 UNK        -0.1927 
     47 C          28.5384   33.2268    1.8246 C.2       7 UNK         0.5013 
     48 O          28.3181   34.4356    1.9225 O.2       7 UNK        -0.5193 
     49 N          29.1280   32.4988    2.7822 N.am      8 UNK        -0.4253 
     50 CA         29.6039   33.0074    4.0637 C.3       8 UNK         0.0242 
     51 CB         31.0126   33.6074    3.9041 C.3       8 UNK        -0.2000 
     52 C          29.6200   31.8474    5.0596 C.2       8 UNK         0.4948 
     53 O          30.0761   30.7587    4.7038 O.2       8 UNK        -0.5275 
     54 N          29.1620   32.1061    6.2927 N.am      9 UNK        -0.4246 
     55 CA         29.0085   31.1245    7.3773 C.3       9 UNK         0.0261 
     56 CB         28.3767   31.8153    8.5969 C.3       9 UNK        -0.1959 
     57 C          30.3014   30.3956    7.7880 C.2       9 UNK         0.5033 
     58 O          30.2286   29.2673    8.2761 O.2       9 UNK        -0.5390 
     59 N          31.4545   31.0413    7.5724 N.am      10 UNK        -0.4215 
     60 CA         32.7865   30.4770    7.7959 C.3       10 UNK         0.0240 
     61 CB         33.8023   31.6294    7.8791 C.3       10 UNK        -0.1982 
     62 C          33.2196   29.4551    6.7252 C.2       10 UNK         0.4970 
     63 O          34.2189   28.7687    6.9425 O.2       10 UNK        -0.4916 
     64 N          32.5002   29.3819    5.5940 N.am      11 UNK        -0.4279 
     65 CA         32.8299   28.5554    4.4211 C.3       11 UNK         0.1003 
     66 C          34.1145   29.0201    3.6641 C.2       11 UNK         0.5709 
     67 N          34.5362   30.2727    3.7995 N.am      11 UNK        -0.7358 
     68 O          34.7288   28.2572    2.9246 O.2       11 UNK        -0.4999 
     69 C69        32.7901   27.0282    4.7342 C.3       12 UNK        -0.0954 
     70 S70        32.0312   26.0428    3.3985 S.3       12 UNK        -0.2268 
     71 C71        33.4661   25.1234    2.7589 C.3       12 UNK         0.0203 
     72 H72        26.4249   20.2893   -2.0856 H         1 UNK         0.0888 
     73 H73        25.8166   21.9460   -2.1156 H         1 UNK         0.0888 
     74 H74        27.1544   21.4770   -3.1683 H         1 UNK         0.0888 
     75 H75        27.6619   19.9008   -0.2576 H         1 UNK         0.3017 
     76 H76        29.7410   21.7555    0.5921 H         1 UNK         0.0873 
     77 H77        28.9636   19.0342    1.7448 H         1 UNK         0.0745 
     78 H78        30.1233   19.2666    0.4711 H         1 UNK         0.0745 
     79 H79        33.3568   20.0540    2.1297 H         1 UNK         0.0705 
     80 H80        32.4647   19.6643    0.6843 H         1 UNK         0.0705 
     81 H81        33.1911   22.4300    3.0998 H         1 UNK         0.1334 
     82 H82        32.8038   25.5186    0.1704 H         1 UNK         0.1417 
     83 H83        31.8966   21.4475   -0.8652 H         1 UNK         0.1562 
     84 H84        30.9295   23.3759   -2.1852 H         1 UNK         0.0748 
     85 H85        32.6091   23.5644   -2.6284 H         1 UNK         0.0748 
     86 H86        30.5842   26.1739   -0.0968 H         1 UNK         0.0940 
     87 H87        29.5297   25.1884   -1.0659 H         1 UNK         0.0940 
     88 H88        28.9247   27.1479   -2.4763 H         1 UNK         0.0703 
     89 H89        28.2509   26.9059    0.2867 H         1 UNK         0.3081 
     90 H90        26.0330   29.5992    0.5789 H         1 UNK         0.0719 
     91 H91        25.0269   26.7482    0.0526 H         1 UNK         0.0809 
     92 H92        24.1497   28.0157    0.9120 H         1 UNK         0.0809 
     93 H93        24.4899   28.1886   -0.8005 H         1 UNK         0.0809 
     94 H94        26.2034   27.2731    2.1734 H         1 UNK         0.2990 
     95 H95        29.2814   27.7573    3.7732 H         1 UNK         0.0690 
     96 H96        28.0369   28.0173    5.8519 H         1 UNK         0.0788 
     97 H97        26.5100   28.2412    4.9927 H         1 UNK         0.0788 
     98 H98        27.7579   29.4685    4.9042 H         1 UNK         0.0788 
     99 H99        27.2808   25.9808    4.5094 H         1 UNK         0.2993 
    100 H100       27.7507   23.6548    3.9770 H         1 UNK         0.0949 
    101 H101       25.4853   24.6463    3.4172 H         1 UNK         0.0767 
    102 H102       25.7458   24.2907    1.7135 H         1 UNK         0.0767 
    103 H103       25.5736   22.9817    2.8791 H         1 UNK         0.0767 
    104 H104       28.6648   23.5705    1.2686 H         1 UNK         0.3013 
    105 H105       30.1927   28.7233    0.4884 H         1 UNK         0.3121 
    106 H106       31.9873   30.4936   -1.0620 H         1 UNK         0.0774 
    107 H107       32.7434   31.1993    1.1903 H         1 UNK         0.0815 
    108 H108       31.4764   30.2486    1.9511 H         1 UNK         0.0815 
    109 H109       32.7788   29.4477    1.0634 H         1 UNK         0.0815 
    110 H110       28.8742   30.5083    0.4785 H         1 UNK         0.2987 
    111 H111       27.2210   31.9240    0.7993 H         1 UNK         0.0949 
    112 H112       28.6401   34.0369   -0.9076 H         1 UNK         0.0806 
    113 H113       27.5339   32.8127   -1.5313 H         1 UNK         0.0806 
    114 H114       26.9563   34.0379   -0.4134 H         1 UNK         0.0806 
    115 H115       29.2273   31.4961    2.6561 H         1 UNK         0.3010 
    116 H116       28.9175   33.7776    4.4224 H         1 UNK         0.0829 
    117 H117       31.0097   34.4463    3.2079 H         1 UNK         0.0813 
    118 H118       31.3925   33.9788    4.8565 H         1 UNK         0.0813 
    119 H119       31.7237   32.8687    3.5311 H         1 UNK         0.0813 
    120 H120       28.8309   33.0394    6.4934 H         1 UNK         0.3038 
    121 H121       28.3125   30.3606    7.0284 H         1 UNK         0.0769 
    122 H122       29.0072   32.6198    8.9777 H         1 UNK         0.0811 
    123 H123       27.4011   32.2373    8.3546 H         1 UNK         0.0811 
    124 H124       28.2252   31.1068    9.4127 H         1 UNK         0.0811 
    125 H125       31.4110   31.9695    7.1783 H         1 UNK         0.3204 
    126 H126       32.7827   29.9560    8.7558 H         1 UNK         0.0748 
    127 H127       34.8061   31.2532    8.0822 H         1 UNK         0.0771 
    128 H128       33.8495   32.1963    6.9485 H         1 UNK         0.0771 
    129 H129       33.5517   32.3222    8.6828 H         1 UNK         0.0771 
    130 H130       31.6760   29.9655    5.4834 H         1 UNK         0.2980 
    131 H131       32.0148   28.7661    3.7290 H         1 UNK         0.0545 
    132 H132       35.3621   30.5675    3.3038 H         1 UNK         0.3459 
    133 H133       34.0443   30.9194    4.3929 H         1 UNK         0.3459 
    134 H134       32.1786   26.8435    5.6188 H         1 UNK         0.0616 
    135 H135       33.7812   26.6454    4.9836 H         1 UNK         0.0616 
    136 H136       34.1733   25.8142    2.3004 H         1 UNK         0.0634 
    137 H137       33.9896   24.6457    3.5884 H         1 UNK         0.0634 
@<TRIPOS>BOND
     1    1    2 1    
     2    1   72 1    
     3    1   73 1    
     4    1   74 1    
     5    2    3 2    
     6    2    4 am   BACKBONE|DICT|INTERRES
     7    4    5 1    
     8    4   75 1    
     9    5    6 1    
    10    5   35 1    
    11    5   76 1    
    12    6    7 1    
    13    6   77 1    
    14    6   78 1    
    15    7    8 1    
    16    8    9 1    
    17    8   79 1    
    18    8   80 1    
    19    9   10 ar   
    20    9   14 ar   
    21   10   11 ar   
    22   10   81 1    
    23   11   12 ar   
    24   11   71 1    
    25   12   13 ar   
    26   12   82 1    
    27   13   14 ar   
    28   13   15 1    
    29   14   83 1    
    30   15   16 1    
    31   15   84 1    
    32   15   85 1    
    33   16   17 1    
    34   17   18 1    
    35   17   86 1    
    36   17   87 1    
    37   18   19 1    
    38   18   37 1    
    39   18   88 1    
    40   19   20 am   BACKBONE|DICT|INTERRES
    41   19   89 1    
    42   20   21 2    
    43   20   22 1    
    44   22   23 1    
    45   22   24 1    
    46   22   90 1    
    47   23   91 1    
    48   23   92 1    
    49   23   93 1    
    50   24   25 am   BACKBONE|DICT|INTERRES
    51   24   94 1    
    52   25   26 2    
    53   25   27 1    
    54   27   28 1    
    55   27   29 1    
    56   27   95 1    
    57   28   96 1    
    58   28   97 1    
    59   28   98 1    
    60   29   30 am   BACKBONE|DICT|INTERRES
    61   29   99 1    
    62   30   31 2    
    63   30   32 1    
    64   32   33 1    
    65   32   34 1    
    66   32  100 1    
    67   33  101 1    
    68   33  102 1    
    69   33  103 1    
    70   34   35 am   BACKBONE|DICT|INTERRES
    71   34  104 1    
    72   35   36 2    
    73   37   38 2    
    74   37   39 am   BACKBONE|DICT|INTERRES
    75   39   40 1    
    76   39  105 1    
    77   40   41 1    
    78   40   42 1    
    79   40  106 1    
    80   41  107 1    
    81   41  108 1    
    82   41  109 1    
    83   42   43 2    
    84   42   44 am   BACKBONE|DICT|INTERRES
    85   44   45 1    
    86   44  110 1    
    87   45   46 1    
    88   45   47 1    
    89   45  111 1    
    90   46  112 1    
    91   46  113 1    
    92   46  114 1    
    93   47   48 2    
    94   47   49 am   BACKBONE|DICT|INTERRES
    95   49   50 1    
    96   49  115 1    
    97   50   51 1    
    98   50   52 1    
    99   50  116 1    
   100   51  117 1    
   101   51  118 1    
   102   51  119 1    
   103   52   53 2    
   104   52   54 am   BACKBONE|DICT|INTERRES
   105   54   55 1    
   106   54  120 1    
   107   55   56 1    
   108   55   57 1    
   109   55  121 1    
   110   56  122 1    
   111   56  123 1    
   112   56  124 1    
   113   57   58 2    
   114   57   59 am   BACKBONE|DICT|INTERRES
   115   59   60 1    
   116   59  125 1    
   117   60   61 1    
   118   60   62 1    
   119   60  126 1    
   120   61  127 1    
   121   61  128 1    
   122   61  129 1    
   123   62   63 2    
   124   62   64 am   BACKBONE|DICT|INTERRES
   125   64   65 1    
   126   64  130 1    
   127   65   66 1    
   128   65   69 1    
   129   65  131 1    
   130   66   67 am   BACKBONE|DICT|INTERRES
   131   66   68 2    
   132   67  132 1    
   133   67  133 1    
   134   69   70 1    
   135   69  134 1    
   136   69  135 1    
   137   70   71 1    
   138   71  136 1    
   139   71  137 1    
@<TRIPOS>SUBSTRUCTURE
     1 UNK         1 GROUP             0       ****    0 ROOT    
