@<TRIPOS>MOLECULE
3R136
137   139    1
SMALL
USER_CHARGES


@<TRIPOS>ATOM
      1 CA         28.7710   20.3369    3.7055 C.3       0 UNK        -0.1979 
      2 C          28.2860   21.0500    2.4526 C.2       0 UNK         0.4864 
      3 O          27.2821   20.6455    1.8637 O.2       0 UNK        -0.5359 
      4 N          28.9778   22.1217    2.0459 N.am      1 UNK        -0.4318 
      5 CA         28.7036   22.9258    0.8475 C.3       1 UNK         0.0824 
      6 C6         29.9693   23.6881    0.3908 C.3       12 UNK        -0.0944 
      7 S7         31.4399   22.6513    0.0481 S.3       12 UNK        -0.2672 
      8 C8         32.5534   22.8865    1.4878 C.3       12 UNK         0.0333 
      9 C9         32.5575   24.3065    2.0438 C.ar      12 UNK        -0.0807 
     10 C10        32.1396   24.5393    3.3579 C.ar      12 UNK        -0.0894 
     11 C11        32.0295   25.8413    3.8515 C.ar      12 UNK        -0.0804 
     12 C12        32.3064   26.9169    2.9999 C.ar      12 UNK        -0.0824 
     13 C13        32.7555   26.7023    1.6934 C.ar      12 UNK        -0.0762 
     14 C14        32.9188   25.3894    1.2350 C.ar      12 UNK        -0.0782 
     15 C15        33.0480   27.9092    0.8032 C.3       12 UNK         0.0230 
     16 S16        32.4584   27.7875   -0.9275 S.3       12 UNK        -0.2608 
     17 C17        30.8124   27.0048   -0.8113 C.3       12 UNK        -0.0989 
     18 CA         29.6295   27.9705   -0.5702 C.3       5 UNK         0.0716 
     19 N          28.3675   27.4008   -1.0457 N.am      5 UNK        -0.4135 
     20 C          27.8535   27.6090   -2.2629 C.2       4 UNK         0.5031 
     21 O          28.3923   28.2953   -3.1325 O.2       4 UNK        -0.5229 
     22 CA         26.5082   26.9324   -2.5740 C.3       4 UNK         0.0329 
     23 CB         26.7420   25.5294   -3.1576 C.3       4 UNK        -0.2001 
     24 N          25.6133   26.8236   -1.4201 N.am      4 UNK        -0.4303 
     25 C          25.0787   27.8389   -0.7307 C.2       3 UNK         0.5044 
     26 O          25.3071   29.0233   -0.9748 O.2       3 UNK        -0.5152 
     27 CA         24.1330   27.4868    0.4357 C.3       3 UNK         0.0319 
     28 CB         22.6812   27.3423   -0.0599 C.3       3 UNK        -0.2001 
     29 N          24.5398   26.3280    1.2478 N.am      3 UNK        -0.4354 
     30 C          24.6436   25.0390    0.8908 C.2       2 UNK         0.4964 
     31 O          24.3786   24.6010   -0.2307 O.2       2 UNK        -0.5047 
     32 CA         25.1750   24.0790    1.9661 C.3       2 UNK         0.0288 
     33 CB         24.0987   23.0539    2.3587 C.3       2 UNK        -0.2113 
     34 N          26.3862   23.3669    1.5488 N.am      2 UNK        -0.4145 
     35 C          27.5175   23.9018    1.0658 C.2       1 UNK         0.5006 
     36 O          27.6627   25.1101    0.8376 O.2       1 UNK        -0.5103 
     37 C          29.5043   28.3739    0.9076 C.2       5 UNK         0.5055 
     38 O          29.9734   29.4510    1.2719 O.2       5 UNK        -0.5220 
     39 N          28.8388   27.5421    1.7282 N.am      6 UNK        -0.4450 
     40 CA         28.6842   27.7174    3.1799 C.3       6 UNK         0.0367 
     41 CB         28.0626   26.4439    3.7747 C.3       6 UNK        -0.1929 
     42 C          27.9022   28.9680    3.6267 C.2       6 UNK         0.5070 
     43 O          27.8766   29.2643    4.8215 O.2       6 UNK        -0.5237 
     44 N          27.2991   29.6949    2.6767 N.am      7 UNK        -0.4739 
     45 CA         26.7573   31.0396    2.8785 C.3       7 UNK         0.0276 
     46 CB         25.9285   31.4348    1.6457 C.3       7 UNK        -0.1927 
     47 C          27.8483   32.0946    3.1613 C.2       7 UNK         0.5013 
     48 O          27.5354   33.1230    3.7629 O.2       7 UNK        -0.5193 
     49 N          29.0933   31.8294    2.7390 N.am      8 UNK        -0.4253 
     50 CA         30.2726   32.6399    3.0289 C.3       8 UNK         0.0242 
     51 CB         31.0540   32.8679    1.7242 C.3       8 UNK        -0.2000 
     52 C          31.1535   31.9001    4.0428 C.2       8 UNK         0.4948 
     53 O          31.2969   30.6773    3.9613 O.2       8 UNK        -0.5275 
     54 N          31.7927   32.6554    4.9445 N.am      9 UNK        -0.4246 
     55 CA         32.7274   32.1527    5.9584 C.3       9 UNK         0.0261 
     56 CB         32.7926   33.1616    7.1207 C.3       9 UNK        -0.1959 
     57 C          34.1173   31.8384    5.3644 C.2       9 UNK         0.5033 
     58 O          35.1292   32.3459    5.8514 O.2       9 UNK        -0.5390 
     59 N          34.1341   31.0146    4.3119 N.am      10 UNK        -0.4215 
     60 CA         35.3193   30.5897    3.5618 C.3       10 UNK         0.0240 
     61 CB         35.1547   31.0287    2.0941 C.3       10 UNK        -0.1982 
     62 C          35.5549   29.0734    3.6955 C.2       10 UNK         0.4970 
     63 O          36.1631   28.4703    2.8103 O.2       10 UNK        -0.4916 
     64 N          35.0475   28.4820    4.7834 N.am      11 UNK        -0.4279 
     65 CA         35.1045   27.0466    5.0879 C.3       11 UNK         0.1003 
     66 C          36.5473   26.5297    5.3361 C.2       11 UNK         0.5709 
     67 N          36.8279   25.2817    4.9858 N.am      11 UNK        -0.7358 
     68 O          37.3980   27.2315    5.8810 O.2       11 UNK        -0.4999 
     69 C69        34.1739   26.6774    6.2764 C.3       12 UNK        -0.0954 
     70 S70        32.4937   27.3871    6.1543 S.3       12 UNK        -0.2268 
     71 C71        31.5788   26.0653    5.2935 C.3       12 UNK         0.0203 
     72 H72        29.6654   20.8022    4.1195 H         1 UNK         0.0888 
     73 H73        27.9950   20.3526    4.4703 H         1 UNK         0.0888 
     74 H74        29.0045   19.2973    3.4777 H         1 UNK         0.0888 
     75 H75        29.7797   22.4184    2.5815 H         1 UNK         0.3017 
     76 H76        28.4120   22.2511    0.0398 H         1 UNK         0.0873 
     77 H77        30.2060   24.4533    1.1275 H         1 UNK         0.0745 
     78 H78        29.7519   24.2181   -0.5382 H         1 UNK         0.0745 
     79 H79        32.2650   22.1730    2.2610 H         1 UNK         0.0705 
     80 H80        33.5686   22.6176    1.1932 H         1 UNK         0.0705 
     81 H81        31.8811   23.7047    3.9951 H         1 UNK         0.1334 
     82 H82        32.1847   27.9291    3.3624 H         1 UNK         0.1417 
     83 H83        33.2522   25.2106    0.2217 H         1 UNK         0.1562 
     84 H84        34.1258   28.0751    0.7904 H         1 UNK         0.0748 
     85 H85        32.6095   28.8087    1.2379 H         1 UNK         0.0748 
     86 H86        30.8183   26.2183   -0.0665 H         1 UNK         0.0940 
     87 H87        30.6696   26.4891   -1.7624 H         1 UNK         0.0940 
     88 H88        29.8209   28.8934   -1.1226 H         1 UNK         0.0703 
     89 H89        27.8652   26.7910   -0.4112 H         1 UNK         0.3081 
     90 H90        26.0015   27.5394   -3.3270 H         1 UNK         0.0719 
     91 H91        27.3906   25.5726   -4.0338 H         1 UNK         0.0809 
     92 H92        27.2146   24.8649   -2.4325 H         1 UNK         0.0809 
     93 H93        25.8049   25.0694   -3.4719 H         1 UNK         0.0809 
     94 H94        25.3263   25.8871   -1.1441 H         1 UNK         0.2990 
     95 H95        24.1589   28.3392    1.1167 H         1 UNK         0.0690 
     96 H96        22.3541   28.2478   -0.5729 H         1 UNK         0.0788 
     97 H97        21.9942   27.1742    0.7694 H         1 UNK         0.0788 
     98 H98        22.5684   26.5155   -0.7618 H         1 UNK         0.0788 
     99 H99        24.8065   26.5638    2.1933 H         1 UNK         0.2993 
    100 H100       25.4312   24.6520    2.8582 H         1 UNK         0.0949 
    101 H101       24.4370   22.4155    3.1754 H         1 UNK         0.0767 
    102 H102       23.1869   23.5512    2.6926 H         1 UNK         0.0767 
    103 H103       23.8315   22.4103    1.5193 H         1 UNK         0.0767 
    104 H104       26.3888   22.3597    1.6835 H         1 UNK         0.3013 
    105 H105       28.4755   26.6653    1.3622 H         1 UNK         0.3121 
    106 H106       29.6859   27.8337    3.5953 H         1 UNK         0.0774 
    107 H107       27.9826   26.5139    4.8603 H         1 UNK         0.0815 
    108 H108       27.0602   26.2733    3.3853 H         1 UNK         0.0815 
    109 H109       28.6681   25.5648    3.5530 H         1 UNK         0.0815 
    110 H110       27.3766   29.3770    1.7221 H         1 UNK         0.2987 
    111 H111       26.0950   31.0139    3.7467 H         1 UNK         0.0949 
    112 H112       25.4961   32.4288    1.7680 H         1 UNK         0.0806 
    113 H113       26.5349   31.4519    0.7391 H         1 UNK         0.0806 
    114 H114       25.1027   30.7423    1.4824 H         1 UNK         0.0806 
    115 H115       29.2896   30.9304    2.3031 H         1 UNK         0.3010 
    116 H116       29.9838   33.6092    3.4407 H         1 UNK         0.0829 
    117 H117       31.3818   31.9259    1.2811 H         1 UNK         0.0813 
    118 H118       30.4460   33.3899    0.9853 H         1 UNK         0.0813 
    119 H119       31.9442   33.4733    1.8997 H         1 UNK         0.0813 
    120 H120       31.6650   33.6571    4.9152 H         1 UNK         0.3038 
    121 H121       32.3345   31.2153    6.3589 H         1 UNK         0.0769 
    122 H122       33.1855   34.1263    6.7974 H         1 UNK         0.0811 
    123 H123       33.4396   32.7969    7.9197 H         1 UNK         0.0811 
    124 H124       31.8077   33.3288    7.5573 H         1 UNK         0.0811 
    125 H125       33.2357   30.6485    4.0020 H         1 UNK         0.3204 
    126 H126       36.2132   31.0741    3.9595 H         1 UNK         0.0748 
    127 H127       36.0299   30.7640    1.4994 H         1 UNK         0.0771 
    128 H128       34.2865   30.5629    1.6281 H         1 UNK         0.0771 
    129 H129       35.0315   32.1092    2.0189 H         1 UNK         0.0771 
    130 H130       34.5765   29.0536    5.4672 H         1 UNK         0.2980 
    131 H131       34.7383   26.5296    4.2007 H         1 UNK         0.0545 
    132 H132       37.7547   24.9227    5.1538 H         1 UNK         0.3459 
    133 H133       36.1347   24.6945    4.5492 H         1 UNK         0.3459 
    134 H134       34.0943   25.5933    6.3746 H         1 UNK         0.0616 
    135 H135       34.6030   27.0342    7.2145 H         1 UNK         0.0616 
    136 H136       31.6722   25.1466    5.8744 H         1 UNK         0.0634 
    137 H137       30.5204   26.3220    5.2961 H         1 UNK         0.0634 
@<TRIPOS>BOND
     1    1    2 1    
     2    1   72 1    
     3    1   73 1    
     4    1   74 1    
     5    2    3 2    
     6    2    4 am   BACKBONE|DICT|INTERRES
     7    4    5 1    
     8    4   75 1    
     9    5    6 1    
    10    5   35 1    
    11    5   76 1    
    12    6    7 1    
    13    6   77 1    
    14    6   78 1    
    15    7    8 1    
    16    8    9 1    
    17    8   79 1    
    18    8   80 1    
    19    9   10 ar   
    20    9   14 ar   
    21   10   11 ar   
    22   10   81 1    
    23   11   12 ar   
    24   11   71 1    
    25   12   13 ar   
    26   12   82 1    
    27   13   14 ar   
    28   13   15 1    
    29   14   83 1    
    30   15   16 1    
    31   15   84 1    
    32   15   85 1    
    33   16   17 1    
    34   17   18 1    
    35   17   86 1    
    36   17   87 1    
    37   18   19 1    
    38   18   37 1    
    39   18   88 1    
    40   19   20 am   BACKBONE|DICT|INTERRES
    41   19   89 1    
    42   20   21 2    
    43   20   22 1    
    44   22   23 1    
    45   22   24 1    
    46   22   90 1    
    47   23   91 1    
    48   23   92 1    
    49   23   93 1    
    50   24   25 am   BACKBONE|DICT|INTERRES
    51   24   94 1    
    52   25   26 2    
    53   25   27 1    
    54   27   28 1    
    55   27   29 1    
    56   27   95 1    
    57   28   96 1    
    58   28   97 1    
    59   28   98 1    
    60   29   30 am   BACKBONE|DICT|INTERRES
    61   29   99 1    
    62   30   31 2    
    63   30   32 1    
    64   32   33 1    
    65   32   34 1    
    66   32  100 1    
    67   33  101 1    
    68   33  102 1    
    69   33  103 1    
    70   34   35 am   BACKBONE|DICT|INTERRES
    71   34  104 1    
    72   35   36 2    
    73   37   38 2    
    74   37   39 am   BACKBONE|DICT|INTERRES
    75   39   40 1    
    76   39  105 1    
    77   40   41 1    
    78   40   42 1    
    79   40  106 1    
    80   41  107 1    
    81   41  108 1    
    82   41  109 1    
    83   42   43 2    
    84   42   44 am   BACKBONE|DICT|INTERRES
    85   44   45 1    
    86   44  110 1    
    87   45   46 1    
    88   45   47 1    
    89   45  111 1    
    90   46  112 1    
    91   46  113 1    
    92   46  114 1    
    93   47   48 2    
    94   47   49 am   BACKBONE|DICT|INTERRES
    95   49   50 1    
    96   49  115 1    
    97   50   51 1    
    98   50   52 1    
    99   50  116 1    
   100   51  117 1    
   101   51  118 1    
   102   51  119 1    
   103   52   53 2    
   104   52   54 am   BACKBONE|DICT|INTERRES
   105   54   55 1    
   106   54  120 1    
   107   55   56 1    
   108   55   57 1    
   109   55  121 1    
   110   56  122 1    
   111   56  123 1    
   112   56  124 1    
   113   57   58 2    
   114   57   59 am   BACKBONE|DICT|INTERRES
   115   59   60 1    
   116   59  125 1    
   117   60   61 1    
   118   60   62 1    
   119   60  126 1    
   120   61  127 1    
   121   61  128 1    
   122   61  129 1    
   123   62   63 2    
   124   62   64 am   BACKBONE|DICT|INTERRES
   125   64   65 1    
   126   64  130 1    
   127   65   66 1    
   128   65   69 1    
   129   65  131 1    
   130   66   67 am   BACKBONE|DICT|INTERRES
   131   66   68 2    
   132   67  132 1    
   133   67  133 1    
   134   69   70 1    
   135   69  134 1    
   136   69  135 1    
   137   70   71 1    
   138   71  136 1    
   139   71  137 1    
@<TRIPOS>SUBSTRUCTURE
     1 UNK         1 GROUP             0       ****    0 ROOT    
