@<TRIPOS>MOLECULE
3R136
137   139    1
SMALL
USER_CHARGES


@<TRIPOS>ATOM
      1 CA         26.0209   18.6315    1.5455 C.3       0 UNK        -0.1979 
      2 C          26.5657   19.7742    0.7015 C.2       0 UNK         0.4864 
      3 O          25.8245   20.3550   -0.0920 O.2       0 UNK        -0.5359 
      4 N          27.8575   20.0922    0.8597 N.am      1 UNK        -0.4318 
      5 CA         28.5360   21.1999    0.1774 C.3       1 UNK         0.0824 
      6 C6         30.0768   21.0284    0.1907 C.3       12 UNK        -0.0944 
      7 S7         30.7935   20.8760    1.8685 S.3       12 UNK        -0.2672 
      8 C8         32.2639   21.9473    1.7687 C.3       12 UNK         0.0333 
      9 C9         31.9146   23.4130    1.5451 C.ar      12 UNK        -0.0807 
     10 C10        31.3136   24.1598    2.5623 C.ar      12 UNK        -0.0894 
     11 C11        31.0119   25.5108    2.3663 C.ar      12 UNK        -0.0804 
     12 C12        31.3262   26.1153    1.1445 C.ar      12 UNK        -0.0824 
     13 C13        31.9183   25.3781    0.1134 C.ar      12 UNK        -0.0762 
     14 C14        32.2133   24.0279    0.3255 C.ar      12 UNK        -0.0782 
     15 C15        32.2579   26.0175   -1.2326 C.3       12 UNK         0.0230 
     16 S16        30.9641   27.1173   -1.9091 S.3       12 UNK        -0.2608 
     17 C17        29.4716   26.0623   -1.8589 C.3       12 UNK        -0.0989 
     18 CA         28.1710   26.8164   -1.4771 C.3       5 UNK         0.0716 
     19 N          27.0446   25.8922   -1.4582 N.am      5 UNK        -0.4135 
     20 C          25.9536   25.9424   -2.2279 C.2       4 UNK         0.5031 
     21 O          25.8228   26.6874   -3.1999 O.2       4 UNK        -0.5229 
     22 CA         24.7846   25.0373   -1.7960 C.3       4 UNK         0.0329 
     23 CB         25.0006   23.5889   -2.2636 C.3       4 UNK        -0.2001 
     24 N          24.6004   25.0665   -0.3417 N.am      4 UNK        -0.4303 
     25 C          24.1783   26.1366    0.3479 C.2       3 UNK         0.5044 
     26 O          23.7122   27.1457   -0.1824 O.2       3 UNK        -0.5152 
     27 CA         24.3508   26.1178    1.8773 C.3       3 UNK         0.0319 
     28 CB         23.1123   25.5387    2.5897 C.3       3 UNK        -0.2001 
     29 N          25.6070   25.4887    2.3120 N.am      3 UNK        -0.4354 
     30 C          25.9333   24.1907    2.3284 C.2       2 UNK         0.4964 
     31 O          25.1564   23.2788    2.0385 O.2       2 UNK        -0.5047 
     32 CA         27.3853   23.8663    2.7163 C.3       2 UNK         0.0288 
     33 CB         27.5168   23.6729    4.2351 C.3       2 UNK        -0.2113 
     34 N          27.8716   22.6676    2.0358 N.am      2 UNK        -0.4145 
     35 C          28.0928   22.5770    0.7163 C.2       1 UNK         0.5006 
     36 O          27.9367   23.5143   -0.0673 O.2       1 UNK        -0.5103 
     37 C          28.2275   27.4724   -0.0803 C.2       5 UNK         0.5055 
     38 O          27.7959   26.8718    0.9080 O.2       5 UNK        -0.5220 
     39 N          28.7597   28.6953   -0.0179 N.am      6 UNK        -0.4450 
     40 CA         28.9852   29.4696    1.1976 C.3       6 UNK         0.0367 
     41 CB         27.6854   30.1748    1.6264 C.3       6 UNK        -0.1929 
     42 C          30.1056   30.4777    0.9180 C.2       6 UNK         0.5070 
     43 O          30.3767   30.7758   -0.2490 O.2       6 UNK        -0.5237 
     44 N          30.7225   30.9963    1.9834 N.am      7 UNK        -0.4739 
     45 CA         31.7700   32.0127    1.9278 C.3       7 UNK         0.0276 
     46 CB         33.1445   31.3406    2.0894 C.3       7 UNK        -0.1927 
     47 C          31.5254   33.0279    3.0473 C.2       7 UNK         0.5013 
     48 O          31.2265   32.6229    4.1732 O.2       7 UNK        -0.5193 
     49 N          31.6909   34.3216    2.7380 N.am      8 UNK        -0.4253 
     50 CA         31.4945   35.4384    3.6732 C.3       8 UNK         0.0242 
     51 CB         31.5387   36.7655    2.8983 C.3       8 UNK        -0.2000 
     52 C          32.5023   35.4617    4.8371 C.2       8 UNK         0.4948 
     53 O          32.1695   35.9501    5.9170 O.2       8 UNK        -0.5275 
     54 N          33.6995   34.9067    4.6065 N.am      9 UNK        -0.4246 
     55 CA         34.7545   34.7187    5.6062 C.3       9 UNK         0.0261 
     56 CB         36.1136   34.7103    4.8829 C.3       9 UNK        -0.1959 
     57 C          34.5753   33.4403    6.4541 C.2       9 UNK         0.5033 
     58 O          35.4525   33.1519    7.2701 O.2       9 UNK        -0.5390 
     59 N          33.4719   32.7043    6.2393 N.am      10 UNK        -0.4215 
     60 CA         33.1305   31.3703    6.7473 C.3       10 UNK         0.0240 
     61 CB         33.2778   31.2574    8.2794 C.3       10 UNK        -0.1982 
     62 C          33.8944   30.2581    6.0090 C.2       10 UNK         0.4970 
     63 O          34.9597   30.4928    5.4342 O.2       10 UNK        -0.4916 
     64 N          33.3058   29.0587    6.0203 N.am      11 UNK        -0.4279 
     65 CA         33.7981   27.8764    5.2940 C.3       11 UNK         0.1003 
     66 C          34.9698   27.1269    5.9930 C.2       11 UNK         0.5709 
     67 N          35.3495   27.4749    7.2172 N.am      11 UNK        -0.7358 
     68 O          35.5534   26.2174    5.4084 O.2       11 UNK        -0.4999 
     69 C69        32.6380   26.9091    4.9419 C.3       12 UNK        -0.0954 
     70 S70        31.3069   27.7374    4.0089 S.3       12 UNK        -0.2268 
     71 C71        30.3222   26.3094    3.4638 C.3       12 UNK         0.0203 
     72 H72        25.6331   17.8417    0.9027 H         1 UNK         0.0888 
     73 H73        25.2075   18.9881    2.1769 H         1 UNK         0.0888 
     74 H74        26.7861   18.1990    2.1901 H         1 UNK         0.0888 
     75 H75        28.4279   19.5715    1.5117 H         1 UNK         0.3017 
     76 H76        28.2245   21.1719   -0.8694 H         1 UNK         0.0873 
     77 H77        30.5475   21.8500   -0.3504 H         1 UNK         0.0745 
     78 H78        30.3450   20.1282   -0.3643 H         1 UNK         0.0745 
     79 H79        32.8274   21.8547    2.6982 H         1 UNK         0.0705 
     80 H80        32.9194   21.5771    0.9788 H         1 UNK         0.0705 
     81 H81        31.0754   23.6829    3.5031 H         1 UNK         0.1334 
     82 H82        31.0990   27.1612    0.9948 H         1 UNK         0.1417 
     83 H83        32.6802   23.4519   -0.4621 H         1 UNK         0.1562 
     84 H84        32.4640   25.2475   -1.9777 H         1 UNK         0.0748 
     85 H85        33.1789   26.5911   -1.1221 H         1 UNK         0.0748 
     86 H86        29.6278   25.2262   -1.1765 H         1 UNK         0.0940 
     87 H87        29.3538   25.6129   -2.8460 H         1 UNK         0.0940 
     88 H88        27.9926   27.6049   -2.2114 H         1 UNK         0.0703 
     89 H89        27.0775   25.2239   -0.6939 H         1 UNK         0.3081 
     90 H90        23.8738   25.4161   -2.2648 H         1 UNK         0.0719 
     91 H91        25.8836   23.1396   -1.8078 H         1 UNK         0.0809 
     92 H92        24.1443   22.9613   -2.0161 H         1 UNK         0.0809 
     93 H93        25.1332   23.5446   -3.3454 H         1 UNK         0.0809 
     94 H94        24.9297   24.2668    0.1874 H         1 UNK         0.2990 
     95 H95        24.4392   27.1604    2.1871 H         1 UNK         0.0690 
     96 H96        23.2403   25.5385    3.6721 H         1 UNK         0.0788 
     97 H97        22.8947   24.5178    2.2754 H         1 UNK         0.0788 
     98 H98        22.2271   26.1360    2.3673 H         1 UNK         0.0788 
     99 H99        26.3666   26.1460    2.4498 H         1 UNK         0.2993 
    100 H100       28.0242   24.6966    2.4104 H         1 UNK         0.0949 
    101 H101       27.2045   24.5700    4.7714 H         1 UNK         0.0767 
    102 H102       26.8987   22.8474    4.5908 H         1 UNK         0.0767 
    103 H103       28.5488   23.4686    4.5210 H         1 UNK         0.0767 
    104 H104       27.9973   21.8403    2.5987 H         1 UNK         0.3013 
    105 H105       29.1661   29.1156   -0.8466 H         1 UNK         0.3121 
    106 H106       29.3174   28.8009    1.9924 H         1 UNK         0.0774 
    107 H107       26.8945   29.4553    1.8390 H         1 UNK         0.0815 
    108 H108       27.3225   30.8521    0.8524 H         1 UNK         0.0815 
    109 H109       27.8376   30.7631    2.5320 H         1 UNK         0.0815 
    110 H110       30.4180   30.7477    2.9164 H         1 UNK         0.2987 
    111 H111       31.7388   32.5362    0.9693 H         1 UNK         0.0949 
    112 H112       33.2163   30.7901    3.0284 H         1 UNK         0.0806 
    113 H113       33.3371   30.6381    1.2783 H         1 UNK         0.0806 
    114 H114       33.9486   32.0773    2.0786 H         1 UNK         0.0806 
    115 H115       31.9428   34.5679    1.7909 H         1 UNK         0.3010 
    116 H116       30.4993   35.3321    4.1109 H         1 UNK         0.0829 
    117 H117       30.7666   36.8032    2.1295 H         1 UNK         0.0813 
    118 H118       31.3691   37.6124    3.5651 H         1 UNK         0.0813 
    119 H119       32.5040   36.9206    2.4147 H         1 UNK         0.0813 
    120 H120       33.8828   34.5402    3.6836 H         1 UNK         0.3038 
    121 H121       34.7435   35.5652    6.2962 H         1 UNK         0.0769 
    122 H122       36.2032   33.8614    4.2037 H         1 UNK         0.0811 
    123 H123       36.9373   34.6448    5.5950 H         1 UNK         0.0811 
    124 H124       36.2626   35.6226    4.3049 H         1 UNK         0.0811 
    125 H125       32.8266   33.0402    5.5335 H         1 UNK         0.3204 
    126 H126       32.0730   31.2435    6.5084 H         1 UNK         0.0748 
    127 H127       32.7872   32.0874    8.7880 H         1 UNK         0.0771 
    128 H128       32.8213   30.3383    8.6482 H         1 UNK         0.0771 
    129 H129       34.3224   31.2415    8.5914 H         1 UNK         0.0771 
    130 H130       32.4331   28.9385    6.5125 H         1 UNK         0.2980 
    131 H131       34.2104   28.2275    4.3458 H         1 UNK         0.0545 
    132 H132       36.1131   26.9845    7.6555 H         1 UNK         0.3459 
    133 H133       34.8847   28.2250    7.7021 H         1 UNK         0.3459 
    134 H134       33.0091   26.0764    4.3416 H         1 UNK         0.0616 
    135 H135       32.2095   26.4743    5.8466 H         1 UNK         0.0616 
    136 H136       30.0983   25.6810    4.3272 H         1 UNK         0.0634 
    137 H137       29.3628   26.6673    3.0913 H         1 UNK         0.0634 
@<TRIPOS>BOND
     1    1    2 1    
     2    1   72 1    
     3    1   73 1    
     4    1   74 1    
     5    2    3 2    
     6    2    4 am   BACKBONE|DICT|INTERRES
     7    4    5 1    
     8    4   75 1    
     9    5    6 1    
    10    5   35 1    
    11    5   76 1    
    12    6    7 1    
    13    6   77 1    
    14    6   78 1    
    15    7    8 1    
    16    8    9 1    
    17    8   79 1    
    18    8   80 1    
    19    9   10 ar   
    20    9   14 ar   
    21   10   11 ar   
    22   10   81 1    
    23   11   12 ar   
    24   11   71 1    
    25   12   13 ar   
    26   12   82 1    
    27   13   14 ar   
    28   13   15 1    
    29   14   83 1    
    30   15   16 1    
    31   15   84 1    
    32   15   85 1    
    33   16   17 1    
    34   17   18 1    
    35   17   86 1    
    36   17   87 1    
    37   18   19 1    
    38   18   37 1    
    39   18   88 1    
    40   19   20 am   BACKBONE|DICT|INTERRES
    41   19   89 1    
    42   20   21 2    
    43   20   22 1    
    44   22   23 1    
    45   22   24 1    
    46   22   90 1    
    47   23   91 1    
    48   23   92 1    
    49   23   93 1    
    50   24   25 am   BACKBONE|DICT|INTERRES
    51   24   94 1    
    52   25   26 2    
    53   25   27 1    
    54   27   28 1    
    55   27   29 1    
    56   27   95 1    
    57   28   96 1    
    58   28   97 1    
    59   28   98 1    
    60   29   30 am   BACKBONE|DICT|INTERRES
    61   29   99 1    
    62   30   31 2    
    63   30   32 1    
    64   32   33 1    
    65   32   34 1    
    66   32  100 1    
    67   33  101 1    
    68   33  102 1    
    69   33  103 1    
    70   34   35 am   BACKBONE|DICT|INTERRES
    71   34  104 1    
    72   35   36 2    
    73   37   38 2    
    74   37   39 am   BACKBONE|DICT|INTERRES
    75   39   40 1    
    76   39  105 1    
    77   40   41 1    
    78   40   42 1    
    79   40  106 1    
    80   41  107 1    
    81   41  108 1    
    82   41  109 1    
    83   42   43 2    
    84   42   44 am   BACKBONE|DICT|INTERRES
    85   44   45 1    
    86   44  110 1    
    87   45   46 1    
    88   45   47 1    
    89   45  111 1    
    90   46  112 1    
    91   46  113 1    
    92   46  114 1    
    93   47   48 2    
    94   47   49 am   BACKBONE|DICT|INTERRES
    95   49   50 1    
    96   49  115 1    
    97   50   51 1    
    98   50   52 1    
    99   50  116 1    
   100   51  117 1    
   101   51  118 1    
   102   51  119 1    
   103   52   53 2    
   104   52   54 am   BACKBONE|DICT|INTERRES
   105   54   55 1    
   106   54  120 1    
   107   55   56 1    
   108   55   57 1    
   109   55  121 1    
   110   56  122 1    
   111   56  123 1    
   112   56  124 1    
   113   57   58 2    
   114   57   59 am   BACKBONE|DICT|INTERRES
   115   59   60 1    
   116   59  125 1    
   117   60   61 1    
   118   60   62 1    
   119   60  126 1    
   120   61  127 1    
   121   61  128 1    
   122   61  129 1    
   123   62   63 2    
   124   62   64 am   BACKBONE|DICT|INTERRES
   125   64   65 1    
   126   64  130 1    
   127   65   66 1    
   128   65   69 1    
   129   65  131 1    
   130   66   67 am   BACKBONE|DICT|INTERRES
   131   66   68 2    
   132   67  132 1    
   133   67  133 1    
   134   69   70 1    
   135   69  134 1    
   136   69  135 1    
   137   70   71 1    
   138   71  136 1    
   139   71  137 1    
@<TRIPOS>SUBSTRUCTURE
     1 UNK         1 GROUP             0       ****    0 ROOT    
