@<TRIPOS>MOLECULE
3R136
137   139    1
SMALL
USER_CHARGES


@<TRIPOS>ATOM
      1 CA         28.7732   17.7500    1.3115 C.3       0 UNK        -0.1979 
      2 C          28.5571   18.8341    0.2661 C.2       0 UNK         0.4864 
      3 O          28.3598   18.5205   -0.9085 O.2       0 UNK        -0.5359 
      4 N          28.5867   20.1068    0.6849 N.am      1 UNK        -0.4318 
      5 CA         28.4328   21.2813   -0.1871 C.3       1 UNK         0.0824 
      6 C6         29.0684   22.5533    0.4309 C.3       12 UNK        -0.0944 
      7 S7         30.8567   22.3415    0.7302 S.3       12 UNK        -0.2672 
      8 C8         31.0057   22.7828    2.4896 C.3       12 UNK         0.0333 
      9 C9         30.9573   24.2902    2.6935 C.ar      12 UNK        -0.0807 
     10 C10        32.0865   25.0667    2.4202 C.ar      12 UNK        -0.0894 
     11 C11        32.0703   26.4521    2.6094 C.ar      12 UNK        -0.0804 
     12 C12        30.8923   27.0616    3.0646 C.ar      12 UNK        -0.0824 
     13 C13        29.7627   26.2925    3.3639 C.ar      12 UNK        -0.0762 
     14 C14        29.7997   24.9082    3.1725 C.ar      12 UNK        -0.0782 
     15 C15        28.5110   26.9419    3.9347 C.3       12 UNK         0.0230 
     16 S16        27.1813   27.0614    2.6997 S.3       12 UNK        -0.2608 
     17 C17        27.7220   28.4892    1.6995 C.3       12 UNK        -0.0989 
     18 CA         28.1419   28.1014    0.2596 C.3       5 UNK         0.0716 
     19 N          27.0735   27.3846   -0.4334 N.am      5 UNK        -0.4135 
     20 C          27.2055   26.6638   -1.5508 C.2       4 UNK         0.5031 
     21 O          28.2715   26.5234   -2.1537 O.2       4 UNK        -0.5229 
     22 CA         25.9292   25.9499   -2.0403 C.3       4 UNK         0.0329 
     23 CB         26.1612   25.1198   -3.3165 C.3       4 UNK        -0.2001 
     24 N          25.3763   25.0865   -0.9892 N.am      4 UNK        -0.4303 
     25 C          24.5998   25.5140    0.0199 C.2       3 UNK         0.5044 
     26 O          24.2396   26.6881    0.1250 O.2       3 UNK        -0.5152 
     27 CA         24.2083   24.5170    1.1321 C.3       3 UNK         0.0319 
     28 CB         22.7445   24.6965    1.5883 C.3       3 UNK        -0.2001 
     29 N          24.5047   23.1102    0.8355 N.am      3 UNK        -0.4354 
     30 C          23.9571   22.3348   -0.1130 C.2       2 UNK         0.4964 
     31 O          23.0556   22.7020   -0.8680 O.2       2 UNK        -0.5047 
     32 CA         24.5508   20.9157   -0.2486 C.3       2 UNK         0.0288 
     33 CB         24.2333   20.2684   -1.6140 C.3       2 UNK        -0.2113 
     34 N          25.9978   20.8516    0.0192 N.am      2 UNK        -0.4145 
     35 C          26.9677   21.5485   -0.5990 C.2       1 UNK         0.5006 
     36 O          26.7419   22.4041   -1.4550 O.2       1 UNK        -0.5103 
     37 C          28.5466   29.3668   -0.5197 C.2       5 UNK         0.5055 
     38 O          27.6954   30.0061   -1.1444 O.2       5 UNK        -0.5220 
     39 N          29.8213   29.7449   -0.4034 N.am      6 UNK        -0.4450 
     40 CA         30.3693   31.0197   -0.8503 C.3       6 UNK         0.0367 
     41 CB         30.8952   30.9020   -2.2911 C.3       6 UNK        -0.1929 
     42 C          31.4884   31.3745    0.1302 C.2       6 UNK         0.5070 
     43 O          32.2707   30.4878    0.4751 O.2       6 UNK        -0.5237 
     44 N          31.5283   32.6404    0.5716 N.am      7 UNK        -0.4739 
     45 CA         32.4546   33.1923    1.5740 C.3       7 UNK         0.0276 
     46 CB         33.8962   33.2379    1.0225 C.3       7 UNK        -0.1927 
     47 C          32.3659   32.4779    2.9396 C.2       7 UNK         0.5013 
     48 O          33.3919   32.2428    3.5795 O.2       7 UNK        -0.5193 
     49 N          31.1350   32.1568    3.3707 N.am      8 UNK        -0.4253 
     50 CA         30.8147   31.3546    4.5615 C.3       8 UNK         0.0242 
     51 CB         29.2888   31.2537    4.7137 C.3       8 UNK        -0.2000 
     52 C          31.4560   31.8333    5.8784 C.2       8 UNK         0.4948 
     53 O          31.7637   31.0033    6.7347 O.2       8 UNK        -0.5275 
     54 N          31.6880   33.1480    5.9994 N.am      9 UNK        -0.4246 
     55 CA         32.4084   33.7730    7.1117 C.3       9 UNK         0.0261 
     56 CB         32.2793   35.3011    7.0037 C.3       9 UNK        -0.1959 
     57 C          33.8920   33.3632    7.2016 C.2       9 UNK         0.5033 
     58 O          34.4393   33.3581    8.3053 O.2       9 UNK        -0.5390 
     59 N          34.5140   33.0254    6.0622 N.am      10 UNK        -0.4215 
     60 CA         35.8720   32.4835    5.9948 C.3       10 UNK         0.0240 
     61 CB         36.5266   32.8805    4.6608 C.3       10 UNK        -0.1982 
     62 C          35.8738   30.9565    6.1684 C.2       10 UNK         0.4970 
     63 O          36.8184   30.4261    6.7545 O.2       10 UNK        -0.4916 
     64 N          34.8291   30.2811    5.6669 N.am      11 UNK        -0.4279 
     65 CA         34.6183   28.8316    5.8185 C.3       11 UNK         0.1003 
     66 C          34.4110   28.4001    7.2960 C.2       11 UNK         0.5709 
     67 N          33.5997   29.1192    8.0631 N.am      11 UNK        -0.7358 
     68 O          34.9885   27.4128    7.7448 O.2       11 UNK        -0.4999 
     69 C69        33.4481   28.3018    4.9494 C.3       12 UNK        -0.0954 
     70 S70        33.5379   28.8169    3.2025 S.3       12 UNK        -0.2268 
     71 C71        33.3458   27.2410    2.3028 C.3       12 UNK         0.0203 
     72 H72        27.9061   17.0915    1.3549 H         1 UNK         0.0888 
     73 H73        29.6448   17.1492    1.0531 H         1 UNK         0.0888 
     74 H74        28.9327   18.1672    2.3057 H         1 UNK         0.0888 
     75 H75        28.7722   20.3046    1.6579 H         1 UNK         0.3017 
     76 H76        28.9652   21.0738   -1.1183 H         1 UNK         0.0873 
     77 H77        28.5606   22.8232    1.3581 H         1 UNK         0.0745 
     78 H78        28.9527   23.4097   -0.2371 H         1 UNK         0.0745 
     79 H79        30.2274   22.2816    3.0671 H         1 UNK         0.0705 
     80 H80        31.9553   22.3998    2.8665 H         1 UNK         0.0705 
     81 H81        32.9845   24.5851    2.0570 H         1 UNK         0.1334 
     82 H82        30.8570   28.1317    3.2088 H         1 UNK         0.1417 
     83 H83        28.9255   24.3144    3.4024 H         1 UNK         0.1562 
     84 H84        28.7303   27.9294    4.3441 H         1 UNK         0.0748 
     85 H85        28.1516   26.3444    4.7739 H         1 UNK         0.0748 
     86 H86        28.5431   28.9957    2.2090 H         1 UNK         0.0940 
     87 H87        26.8976   29.2054    1.6781 H         1 UNK         0.0940 
     88 H88        29.0068   27.4361    0.3174 H         1 UNK         0.0703 
     89 H89        26.1509   27.4420   -0.0174 H         1 UNK         0.3081 
     90 H90        25.1994   26.7246   -2.2859 H         1 UNK         0.0719 
     91 H91        26.4778   25.7580   -4.1423 H         1 UNK         0.0809 
     92 H92        26.9363   24.3662   -3.1754 H         1 UNK         0.0809 
     93 H93        25.2506   24.6095   -3.6304 H         1 UNK         0.0809 
     94 H94        25.6739   24.1165   -1.0096 H         1 UNK         0.2990 
     95 H95        24.8428   24.7736    1.9819 H         1 UNK         0.0690 
     96 H96        22.4901   24.0032    2.3900 H         1 UNK         0.0788 
     97 H97        22.0410   24.5384    0.7705 H         1 UNK         0.0788 
     98 H98        22.5740   25.7042    1.9693 H         1 UNK         0.0788 
     99 H99        25.2419   22.7015    1.3927 H         1 UNK         0.2993 
    100 H100       24.0658   20.3143    0.5220 H         1 UNK         0.0949 
    101 H101       24.6409   20.8512   -2.4410 H         1 UNK         0.0767 
    102 H102       24.6444   19.2610   -1.6800 H         1 UNK         0.0767 
    103 H103       23.1568   20.1882   -1.7709 H         1 UNK         0.0767 
    104 H104       26.2849   20.1850    0.7222 H         1 UNK         0.3013 
    105 H105       30.4711   29.1941    0.1457 H         1 UNK         0.3121 
    106 H106       29.5964   31.7905   -0.8068 H         1 UNK         0.0774 
    107 H107       31.6743   30.1431   -2.3745 H         1 UNK         0.0815 
    108 H108       30.0960   30.6386   -2.9841 H         1 UNK         0.0815 
    109 H109       31.3210   31.8476   -2.6288 H         1 UNK         0.0815 
    110 H110       30.8377   33.2889    0.2170 H         1 UNK         0.2987 
    111 H111       32.1412   34.2219    1.7537 H         1 UNK         0.0949 
    112 H112       33.9405   33.7581    0.0659 H         1 UNK         0.0806 
    113 H113       34.5609   33.7647    1.7084 H         1 UNK         0.0806 
    114 H114       34.3066   32.2373    0.8810 H         1 UNK         0.0806 
    115 H115       30.3561   32.4095    2.7803 H         1 UNK         0.3010 
    116 H116       31.1975   30.3520    4.3704 H         1 UNK         0.0829 
    117 H117       28.8345   32.2319    4.8767 H         1 UNK         0.0813 
    118 H118       29.0224   30.6249    5.5647 H         1 UNK         0.0813 
    119 H119       28.8267   30.8118    3.8315 H         1 UNK         0.0813 
    120 H120       31.3978   33.7532    5.2452 H         1 UNK         0.3038 
    121 H121       31.9266   33.4538    8.0384 H         1 UNK         0.0769 
    122 H122       31.2355   35.6149    7.0280 H         1 UNK         0.0811 
    123 H123       32.7246   35.6806    6.0831 H         1 UNK         0.0811 
    124 H124       32.7830   35.7944    7.8363 H         1 UNK         0.0811 
    125 H125       33.9832   32.9982    5.1945 H         1 UNK         0.3204 
    126 H126       36.4716   32.9130    6.8005 H         1 UNK         0.0748 
    127 H127       36.0105   32.4429    3.8056 H         1 UNK         0.0771 
    128 H128       36.5348   33.9626    4.5295 H         1 UNK         0.0771 
    129 H129       37.5624   32.5410    4.6216 H         1 UNK         0.0771 
    130 H130       34.1213   30.7837    5.1483 H         1 UNK         0.2980 
    131 H131       35.5298   28.3443    5.4669 H         1 UNK         0.0545 
    132 H132       33.0663   29.8863    7.6637 H         1 UNK         0.3459 
    133 H133       33.4588   28.8530    9.0240 H         1 UNK         0.3459 
    134 H134       32.4907   28.6426    5.3456 H         1 UNK         0.0616 
    135 H135       33.4202   27.2117    4.9973 H         1 UNK         0.0616 
    136 H136       34.2222   26.6270    2.5161 H         1 UNK         0.0634 
    137 H137       33.3695   27.4553    1.2337 H         1 UNK         0.0634 
@<TRIPOS>BOND
     1    1    2 1    
     2    1   72 1    
     3    1   73 1    
     4    1   74 1    
     5    2    3 2    
     6    2    4 am   BACKBONE|DICT|INTERRES
     7    4    5 1    
     8    4   75 1    
     9    5    6 1    
    10    5   35 1    
    11    5   76 1    
    12    6    7 1    
    13    6   77 1    
    14    6   78 1    
    15    7    8 1    
    16    8    9 1    
    17    8   79 1    
    18    8   80 1    
    19    9   10 ar   
    20    9   14 ar   
    21   10   11 ar   
    22   10   81 1    
    23   11   12 ar   
    24   11   71 1    
    25   12   13 ar   
    26   12   82 1    
    27   13   14 ar   
    28   13   15 1    
    29   14   83 1    
    30   15   16 1    
    31   15   84 1    
    32   15   85 1    
    33   16   17 1    
    34   17   18 1    
    35   17   86 1    
    36   17   87 1    
    37   18   19 1    
    38   18   37 1    
    39   18   88 1    
    40   19   20 am   BACKBONE|DICT|INTERRES
    41   19   89 1    
    42   20   21 2    
    43   20   22 1    
    44   22   23 1    
    45   22   24 1    
    46   22   90 1    
    47   23   91 1    
    48   23   92 1    
    49   23   93 1    
    50   24   25 am   BACKBONE|DICT|INTERRES
    51   24   94 1    
    52   25   26 2    
    53   25   27 1    
    54   27   28 1    
    55   27   29 1    
    56   27   95 1    
    57   28   96 1    
    58   28   97 1    
    59   28   98 1    
    60   29   30 am   BACKBONE|DICT|INTERRES
    61   29   99 1    
    62   30   31 2    
    63   30   32 1    
    64   32   33 1    
    65   32   34 1    
    66   32  100 1    
    67   33  101 1    
    68   33  102 1    
    69   33  103 1    
    70   34   35 am   BACKBONE|DICT|INTERRES
    71   34  104 1    
    72   35   36 2    
    73   37   38 2    
    74   37   39 am   BACKBONE|DICT|INTERRES
    75   39   40 1    
    76   39  105 1    
    77   40   41 1    
    78   40   42 1    
    79   40  106 1    
    80   41  107 1    
    81   41  108 1    
    82   41  109 1    
    83   42   43 2    
    84   42   44 am   BACKBONE|DICT|INTERRES
    85   44   45 1    
    86   44  110 1    
    87   45   46 1    
    88   45   47 1    
    89   45  111 1    
    90   46  112 1    
    91   46  113 1    
    92   46  114 1    
    93   47   48 2    
    94   47   49 am   BACKBONE|DICT|INTERRES
    95   49   50 1    
    96   49  115 1    
    97   50   51 1    
    98   50   52 1    
    99   50  116 1    
   100   51  117 1    
   101   51  118 1    
   102   51  119 1    
   103   52   53 2    
   104   52   54 am   BACKBONE|DICT|INTERRES
   105   54   55 1    
   106   54  120 1    
   107   55   56 1    
   108   55   57 1    
   109   55  121 1    
   110   56  122 1    
   111   56  123 1    
   112   56  124 1    
   113   57   58 2    
   114   57   59 am   BACKBONE|DICT|INTERRES
   115   59   60 1    
   116   59  125 1    
   117   60   61 1    
   118   60   62 1    
   119   60  126 1    
   120   61  127 1    
   121   61  128 1    
   122   61  129 1    
   123   62   63 2    
   124   62   64 am   BACKBONE|DICT|INTERRES
   125   64   65 1    
   126   64  130 1    
   127   65   66 1    
   128   65   69 1    
   129   65  131 1    
   130   66   67 am   BACKBONE|DICT|INTERRES
   131   66   68 2    
   132   67  132 1    
   133   67  133 1    
   134   69   70 1    
   135   69  134 1    
   136   69  135 1    
   137   70   71 1    
   138   71  136 1    
   139   71  137 1    
@<TRIPOS>SUBSTRUCTURE
     1 UNK         1 GROUP             0       ****    0 ROOT    
