@<TRIPOS>MOLECULE
3R136
137   139    1
SMALL
USER_CHARGES


@<TRIPOS>ATOM
      1 CA         27.3229   22.9870    3.2831 C.3       0 UNK        -0.1979 
      2 C          27.8935   23.3581    1.9231 C.2       0 UNK         0.4864 
      3 O          28.0074   24.5482    1.6238 O.2       0 UNK        -0.5359 
      4 N          28.2395   22.3477    1.1072 N.am      1 UNK        -0.4318 
      5 CA         28.8301   22.4619   -0.2362 C.3       1 UNK         0.0824 
      6 C6         30.2870   23.0123   -0.2034 C.3       12 UNK        -0.0944 
      7 S7         31.5144   21.6945    0.0878 S.3       12 UNK        -0.2672 
      8 C8         31.5371   21.5287    1.9042 C.3       12 UNK         0.0333 
      9 C9         31.9989   22.7793    2.6450 C.ar      12 UNK        -0.0807 
     10 C10        33.1357   23.4865    2.2359 C.ar      12 UNK        -0.0894 
     11 C11        33.5632   24.6138    2.9433 C.ar      12 UNK        -0.0804 
     12 C12        32.8574   25.0222    4.0790 C.ar      12 UNK        -0.0824 
     13 C13        31.7278   24.3192    4.5056 C.ar      12 UNK        -0.0762 
     14 C14        31.3024   23.2016    3.7818 C.ar      12 UNK        -0.0782 
     15 C15        30.9805   24.7495    5.7622 C.3       12 UNK         0.0230 
     16 S16        30.3532   26.4573    5.6660 S.3       12 UNK        -0.2608 
     17 C17        29.1501   26.3464    4.2990 C.3       12 UNK        -0.0989 
     18 CA         29.1026   27.6440    3.4507 C.3       5 UNK         0.0716 
     19 N          28.7900   27.3432    2.0494 N.am      5 UNK        -0.4135 
     20 C          28.9220   28.2060    1.0317 C.2       4 UNK         0.5031 
     21 O          29.3631   29.3469    1.1511 O.2       4 UNK        -0.5229 
     22 CA         28.4130   27.7451   -0.3442 C.3       4 UNK         0.0329 
     23 CB         29.5473   27.0681   -1.1264 C.3       4 UNK        -0.2001 
     24 N          27.2445   26.8581   -0.2628 N.am      4 UNK        -0.4303 
     25 C          26.0741   27.2046    0.2986 C.2       3 UNK         0.5044 
     26 O          25.8689   28.3264    0.7643 O.2       3 UNK        -0.5152 
     27 CA         24.9751   26.1352    0.4545 C.3       3 UNK         0.0319 
     28 CB         23.5629   26.7059    0.2047 C.3       3 UNK        -0.2001 
     29 N          25.2036   24.9030   -0.3064 N.am      3 UNK        -0.4354 
     30 C          25.1813   24.7328   -1.6367 C.2       2 UNK         0.4964 
     31 O          24.9080   25.6206   -2.4458 O.2       2 UNK        -0.5047 
     32 CA         25.5609   23.3191   -2.1278 C.3       2 UNK         0.0288 
     33 CB         25.8723   23.2693   -3.6397 C.3       2 UNK        -0.2113 
     34 N          26.6596   22.7248   -1.3475 N.am      2 UNK        -0.4145 
     35 C          27.8921   23.2363   -1.1884 C.2       1 UNK         0.5006 
     36 O          28.2633   24.2853   -1.7145 O.2       1 UNK        -0.5103 
     37 C          28.1585   28.7001    4.0808 C.2       5 UNK         0.5055 
     38 O          28.5129   29.2833    5.1064 O.2       5 UNK        -0.5220 
     39 N          26.9764   28.9205    3.4847 N.am      6 UNK        -0.4450 
     40 CA         26.0182   29.9469    3.8977 C.3       6 UNK         0.0367 
     41 CB         24.5944   29.3666    3.8548 C.3       6 UNK        -0.1929 
     42 C          26.1223   31.1921    3.0040 C.2       6 UNK         0.5070 
     43 O          26.0531   32.3093    3.5167 O.2       6 UNK        -0.5237 
     44 N          26.2679   30.9853    1.6871 N.am      7 UNK        -0.4739 
     45 CA         26.3386   32.0445    0.6770 C.3       7 UNK         0.0276 
     46 CB         26.1323   31.4250   -0.7144 C.3       7 UNK        -0.1927 
     47 C          27.6440   32.8587    0.7129 C.2       7 UNK         0.5013 
     48 O          27.6205   34.0390    0.3603 O.2       7 UNK        -0.5193 
     49 N          28.7480   32.2259    1.1226 N.am      8 UNK        -0.4253 
     50 CA         30.0735   32.8243    1.2634 C.3       8 UNK         0.0242 
     51 CB         30.9632   32.3275    0.1079 C.3       8 UNK        -0.2000 
     52 C          30.6624   32.4507    2.6325 C.2       8 UNK         0.4948 
     53 O          30.0277   31.7316    3.4075 O.2       8 UNK        -0.5275 
     54 N          31.8689   32.9578    2.9167 N.am      9 UNK        -0.4246 
     55 CA         32.6420   32.6200    4.1140 C.3       9 UNK         0.0261 
     56 CB         33.8215   33.5976    4.2467 C.3       9 UNK        -0.1959 
     57 C          33.1495   31.1678    4.0645 C.2       9 UNK         0.5033 
     58 O          33.4934   30.6764    2.9856 O.2       9 UNK        -0.5390 
     59 N          33.2116   30.5211    5.2349 N.am      10 UNK        -0.4215 
     60 CA         33.7146   29.1564    5.3979 C.3       10 UNK         0.0240 
     61 CB         33.3336   28.6393    6.7948 C.3       10 UNK        -0.1982 
     62 C          35.2367   29.0771    5.1885 C.2       10 UNK         0.4970 
     63 O          35.9582   30.0172    5.5295 O.2       10 UNK        -0.4916 
     64 N          35.6874   27.9360    4.6605 N.am      11 UNK        -0.4279 
     65 CA         37.0965   27.6056    4.3987 C.3       11 UNK         0.1003 
     66 C          37.9263   27.2097    5.6566 C.2       11 UNK         0.5709 
     67 N          37.3261   27.0449    6.8299 N.am      11 UNK        -0.7358 
     68 O          39.1435   27.0661    5.5681 O.2       11 UNK        -0.4999 
     69 C69        37.2205   26.5623    3.2525 C.3       12 UNK        -0.0954 
     70 S70        36.2270   25.0526    3.5281 S.3       12 UNK        -0.2268 
     71 C71        34.7787   25.4009    2.4815 C.3       12 UNK         0.0203 
     72 H72        26.3178   23.3937    3.3900 H         1 UNK         0.0888 
     73 H73        27.2698   21.9078    3.4243 H         1 UNK         0.0888 
     74 H74        27.9431   23.4026    4.0764 H         1 UNK         0.0888 
     75 H75        28.0935   21.3996    1.4249 H         1 UNK         0.3017 
     76 H76        28.8639   21.4514   -0.6472 H         1 UNK         0.0873 
     77 H77        30.5667   23.4521   -1.1623 H         1 UNK         0.0745 
     78 H78        30.4045   23.8124    0.5289 H         1 UNK         0.0745 
     79 H79        30.5452   21.2231    2.2383 H         1 UNK         0.0705 
     80 H80        32.2092   20.7103    2.1650 H         1 UNK         0.0705 
     81 H81        33.6866   23.1594    1.3647 H         1 UNK         0.1334 
     82 H82        33.1852   25.8865    4.6382 H         1 UNK         0.1417 
     83 H83        30.4349   22.6483    4.1141 H         1 UNK         0.1562 
     84 H84        31.6554   24.6725    6.6157 H         1 UNK         0.0748 
     85 H85        30.1449   24.0797    5.9711 H         1 UNK         0.0748 
     86 H86        28.1676   26.0795    4.6934 H         1 UNK         0.0940 
     87 H87        29.4479   25.5097    3.6675 H         1 UNK         0.0940 
     88 H88        30.1010   28.0880    3.4432 H         1 UNK         0.0703 
     89 H89        28.4398   26.4077    1.8500 H         1 UNK         0.3081 
     90 H90        28.1079   28.6352   -0.8967 H         1 UNK         0.0719 
     91 H91        29.8907   26.1595   -0.6301 H         1 UNK         0.0809 
     92 H92        29.2305   26.8026   -2.1351 H         1 UNK         0.0809 
     93 H93        30.4071   27.7327   -1.2218 H         1 UNK         0.0809 
     94 H94        27.3720   25.9096   -0.5981 H         1 UNK         0.2990 
     95 H95        25.0184   25.8358    1.5028 H         1 UNK         0.0690 
     96 H96        22.7961   25.9429    0.3374 H         1 UNK         0.0788 
     97 H97        23.4615   27.1147   -0.8009 H         1 UNK         0.0788 
     98 H98        23.3375   27.5130    0.9028 H         1 UNK         0.0788 
     99 H99        25.4707   24.1050    0.2521 H         1 UNK         0.2993 
    100 H100       24.6826   22.6954   -1.9534 H         1 UNK         0.0949 
    101 H101       26.7075   23.9190   -3.9038 H         1 UNK         0.0767 
    102 H102       26.1201   22.2575   -3.9605 H         1 UNK         0.0767 
    103 H103       25.0118   23.5925   -4.2270 H         1 UNK         0.0767 
    104 H104       26.4368   21.8669   -0.8610 H         1 UNK         0.3013 
    105 H105       26.7645   28.4352    2.6212 H         1 UNK         0.3121 
    106 H106       26.2175   30.2588    4.9253 H         1 UNK         0.0774 
    107 H107       24.3110   29.0501    2.8506 H         1 UNK         0.0815 
    108 H108       23.8635   30.1083    4.1796 H         1 UNK         0.0815 
    109 H109       24.4982   28.5059    4.5166 H         1 UNK         0.0815 
    110 H110       26.2468   30.0296    1.3381 H         1 UNK         0.2987 
    111 H111       25.5172   32.7397    0.8643 H         1 UNK         0.0949 
    112 H112       26.9263   30.7202   -0.9617 H         1 UNK         0.0806 
    113 H113       25.1822   30.8936   -0.7765 H         1 UNK         0.0806 
    114 H114       26.1257   32.1943   -1.4877 H         1 UNK         0.0806 
    115 H115       28.6886   31.2553    1.4185 H         1 UNK         0.3010 
    116 H116       30.0046   33.9134    1.2235 H         1 UNK         0.0829 
    117 H117       30.5153   32.5523   -0.8602 H         1 UNK         0.0813 
    118 H118       31.9447   32.8018    0.1244 H         1 UNK         0.0813 
    119 H119       31.1205   31.2491    0.1596 H         1 UNK         0.0813 
    120 H120       32.3389   33.5172    2.2202 H         1 UNK         0.3038 
    121 H121       31.9913   32.7382    4.9835 H         1 UNK         0.0769 
    122 H122       34.5002   33.5288    3.3954 H         1 UNK         0.0811 
    123 H123       34.4050   33.3863    5.1440 H         1 UNK         0.0811 
    124 H124       33.4773   34.6294    4.3210 H         1 UNK         0.0811 
    125 H125       32.9510   31.0108    6.0785 H         1 UNK         0.3204 
    126 H126       33.2217   28.5290    4.6514 H         1 UNK         0.0748 
    127 H127       33.6380   27.6000    6.9256 H         1 UNK         0.0771 
    128 H128       33.8081   29.2218    7.5858 H         1 UNK         0.0771 
    129 H129       32.2550   28.6773    6.9505 H         1 UNK         0.0771 
    130 H130       35.0347   27.1992    4.4453 H         1 UNK         0.2980 
    131 H131       37.5709   28.5189    4.0343 H         1 UNK         0.0545 
    132 H132       37.8790   26.7954    7.6346 H         1 UNK         0.3459 
    133 H133       36.3309   27.1641    6.9180 H         1 UNK         0.3459 
    134 H134       38.2611   26.2685    3.1031 H         1 UNK         0.0616 
    135 H135       36.9162   27.0196    2.3098 H         1 UNK         0.0616 
    136 H136       35.0244   25.1654    1.4447 H         1 UNK         0.0634 
    137 H137       34.5406   26.4651    2.5040 H         1 UNK         0.0634 
@<TRIPOS>BOND
     1    1    2 1    
     2    1   72 1    
     3    1   73 1    
     4    1   74 1    
     5    2    3 2    
     6    2    4 am   BACKBONE|DICT|INTERRES
     7    4    5 1    
     8    4   75 1    
     9    5    6 1    
    10    5   35 1    
    11    5   76 1    
    12    6    7 1    
    13    6   77 1    
    14    6   78 1    
    15    7    8 1    
    16    8    9 1    
    17    8   79 1    
    18    8   80 1    
    19    9   10 ar   
    20    9   14 ar   
    21   10   11 ar   
    22   10   81 1    
    23   11   12 ar   
    24   11   71 1    
    25   12   13 ar   
    26   12   82 1    
    27   13   14 ar   
    28   13   15 1    
    29   14   83 1    
    30   15   16 1    
    31   15   84 1    
    32   15   85 1    
    33   16   17 1    
    34   17   18 1    
    35   17   86 1    
    36   17   87 1    
    37   18   19 1    
    38   18   37 1    
    39   18   88 1    
    40   19   20 am   BACKBONE|DICT|INTERRES
    41   19   89 1    
    42   20   21 2    
    43   20   22 1    
    44   22   23 1    
    45   22   24 1    
    46   22   90 1    
    47   23   91 1    
    48   23   92 1    
    49   23   93 1    
    50   24   25 am   BACKBONE|DICT|INTERRES
    51   24   94 1    
    52   25   26 2    
    53   25   27 1    
    54   27   28 1    
    55   27   29 1    
    56   27   95 1    
    57   28   96 1    
    58   28   97 1    
    59   28   98 1    
    60   29   30 am   BACKBONE|DICT|INTERRES
    61   29   99 1    
    62   30   31 2    
    63   30   32 1    
    64   32   33 1    
    65   32   34 1    
    66   32  100 1    
    67   33  101 1    
    68   33  102 1    
    69   33  103 1    
    70   34   35 am   BACKBONE|DICT|INTERRES
    71   34  104 1    
    72   35   36 2    
    73   37   38 2    
    74   37   39 am   BACKBONE|DICT|INTERRES
    75   39   40 1    
    76   39  105 1    
    77   40   41 1    
    78   40   42 1    
    79   40  106 1    
    80   41  107 1    
    81   41  108 1    
    82   41  109 1    
    83   42   43 2    
    84   42   44 am   BACKBONE|DICT|INTERRES
    85   44   45 1    
    86   44  110 1    
    87   45   46 1    
    88   45   47 1    
    89   45  111 1    
    90   46  112 1    
    91   46  113 1    
    92   46  114 1    
    93   47   48 2    
    94   47   49 am   BACKBONE|DICT|INTERRES
    95   49   50 1    
    96   49  115 1    
    97   50   51 1    
    98   50   52 1    
    99   50  116 1    
   100   51  117 1    
   101   51  118 1    
   102   51  119 1    
   103   52   53 2    
   104   52   54 am   BACKBONE|DICT|INTERRES
   105   54   55 1    
   106   54  120 1    
   107   55   56 1    
   108   55   57 1    
   109   55  121 1    
   110   56  122 1    
   111   56  123 1    
   112   56  124 1    
   113   57   58 2    
   114   57   59 am   BACKBONE|DICT|INTERRES
   115   59   60 1    
   116   59  125 1    
   117   60   61 1    
   118   60   62 1    
   119   60  126 1    
   120   61  127 1    
   121   61  128 1    
   122   61  129 1    
   123   62   63 2    
   124   62   64 am   BACKBONE|DICT|INTERRES
   125   64   65 1    
   126   64  130 1    
   127   65   66 1    
   128   65   69 1    
   129   65  131 1    
   130   66   67 am   BACKBONE|DICT|INTERRES
   131   66   68 2    
   132   67  132 1    
   133   67  133 1    
   134   69   70 1    
   135   69  134 1    
   136   69  135 1    
   137   70   71 1    
   138   71  136 1    
   139   71  137 1    
@<TRIPOS>SUBSTRUCTURE
     1 UNK         1 GROUP             0       ****    0 ROOT    
