@<TRIPOS>MOLECULE
3R136
137   139    1
SMALL
USER_CHARGES


@<TRIPOS>ATOM
      1 CA         32.6504   25.2387   -5.5169 C.3       0 UNK        -0.1979 
      2 C          31.9293   25.6385   -4.2379 C.2       0 UNK         0.4864 
      3 O          31.1960   26.6283   -4.2339 O.2       0 UNK        -0.5359 
      4 N          32.1372   24.8812   -3.1526 N.am      1 UNK        -0.4318 
      5 CA         31.4826   25.0745   -1.8559 C.3       1 UNK         0.0824 
      6 C6         32.2293   24.2972   -0.7425 C.3       12 UNK        -0.0944 
      7 S7         31.9417   24.9912    0.9172 S.3       12 UNK        -0.2672 
      8 C8         31.1750   23.5764    1.7579 C.3       12 UNK         0.0333 
      9 C9         30.8813   23.8725    3.2223 C.ar      12 UNK        -0.0807 
     10 C10        31.8918   23.7529    4.1797 C.ar      12 UNK        -0.0894 
     11 C11        31.6083   23.9295    5.5372 C.ar      12 UNK        -0.0804 
     12 C12        30.3022   24.2354    5.9353 C.ar      12 UNK        -0.0824 
     13 C13        29.2805   24.3666    4.9867 C.ar      12 UNK        -0.0762 
     14 C14        29.5845   24.1947    3.6324 C.ar      12 UNK        -0.0782 
     15 C15        27.8219   24.5801    5.3896 C.3       12 UNK         0.0230 
     16 S16        27.5516   25.5887    6.8921 S.3       12 UNK        -0.2608 
     17 C17        28.0121   27.3085    6.4667 C.3       12 UNK        -0.0989 
     18 CA         27.9096   27.7316    4.9794 C.3       5 UNK         0.0716 
     19 N          26.5762   27.4988    4.4082 N.am      5 UNK        -0.4135 
     20 C          26.3255   27.4651    3.0928 C.2       4 UNK         0.5031 
     21 O          27.1663   27.7220    2.2292 O.2       4 UNK        -0.5229 
     22 CA         24.8917   27.1268    2.6655 C.3       4 UNK         0.0329 
     23 CB         24.2131   28.3556    2.0374 C.3       4 UNK        -0.2001 
     24 N          24.9152   26.0370    1.6921 N.am      4 UNK        -0.4303 
     25 C          25.0196   24.7377    2.0054 C.2       3 UNK         0.5044 
     26 O          24.9986   24.3082    3.1592 O.2       3 UNK        -0.5152 
     27 CA         25.1755   23.7455    0.8360 C.3       3 UNK         0.0319 
     28 CB         23.8040   23.2016    0.4046 C.3       3 UNK        -0.2001 
     29 N          25.8573   24.3243   -0.3271 N.am      3 UNK        -0.4354 
     30 C          27.1527   24.6674   -0.3435 C.2       2 UNK         0.4964 
     31 O          27.9215   24.4615    0.5956 O.2       2 UNK        -0.5047 
     32 CA         27.6444   25.3975   -1.6042 C.3       2 UNK         0.0288 
     33 CB         26.9608   26.7707   -1.7275 C.3       2 UNK        -0.2113 
     34 N          29.0959   25.5961   -1.5812 N.am      2 UNK        -0.4145 
     35 C          29.9941   24.6763   -1.9552 C.2       1 UNK         0.5006 
     36 O          29.6950   23.5592   -2.3881 O.2       1 UNK        -0.5103 
     37 C          28.3949   29.1887    4.8095 C.2       5 UNK         0.5055 
     38 O          29.5847   29.4403    4.9823 O.2       5 UNK        -0.5220 
     39 N          27.4929   30.1232    4.4802 N.am      6 UNK        -0.4450 
     40 CA         27.8016   31.5364    4.2407 C.3       6 UNK         0.0367 
     41 CB         26.5150   32.3577    4.4333 C.3       6 UNK        -0.1929 
     42 C          28.4184   31.8180    2.8548 C.2       6 UNK         0.5070 
     43 O          28.7881   32.9633    2.5899 O.2       6 UNK        -0.5237 
     44 N          28.4875   30.8063    1.9780 N.am      7 UNK        -0.4739 
     45 CA         28.9458   30.9075    0.5910 C.3       7 UNK         0.0276 
     46 CB         28.4695   29.6605   -0.1715 C.3       7 UNK        -0.1927 
     47 C          30.4657   31.1280    0.4518 C.2       7 UNK         0.5013 
     48 O          31.1823   30.2125    0.0424 O.2       7 UNK        -0.5193 
     49 N          30.9161   32.3499    0.7687 N.am      8 UNK        -0.4253 
     50 CA         32.2483   32.9240    0.5350 C.3       8 UNK         0.0242 
     51 CB         32.4470   33.2162   -0.9688 C.3       8 UNK        -0.2000 
     52 C          33.4013   32.0993    1.1371 C.2       8 UNK         0.4948 
     53 O          33.8034   32.3630    2.2700 O.2       8 UNK        -0.5275 
     54 N          33.9153   31.1312    0.3655 N.am      9 UNK        -0.4246 
     55 CA         34.9649   30.1888    0.7611 C.3       9 UNK         0.0261 
     56 CB         35.5220   29.5075   -0.5002 C.3       9 UNK        -0.1959 
     57 C          34.4963   29.1326    1.7810 C.2       9 UNK         0.5033 
     58 O          35.3453   28.4983    2.4106 O.2       9 UNK        -0.5390 
     59 N          33.1753   28.9516    1.9209 N.am      10 UNK        -0.4215 
     60 CA         32.5389   28.0845    2.9145 C.3       10 UNK         0.0240 
     61 CB         31.0445   27.9884    2.5798 C.3       10 UNK        -0.1982 
     62 C          32.7764   28.5553    4.3670 C.2       10 UNK         0.4970 
     63 O          33.1744   29.7000    4.5948 O.2       10 UNK        -0.4916 
     64 N          32.5641   27.6387    5.3193 N.am      11 UNK        -0.4279 
     65 CA         32.9964   27.7542    6.7245 C.3       11 UNK         0.1003 
     66 C          32.3509   28.8762    7.5908 C.2       11 UNK         0.5709 
     67 N          31.2951   29.5524    7.1651 N.am      11 UNK        -0.7358 
     68 O          32.8326   29.1458    8.6891 O.2       11 UNK        -0.4999 
     69 C69        32.9163   26.3891    7.4562 C.3       12 UNK        -0.0954 
     70 S70        33.8906   25.0881    6.6280 S.3       12 UNK        -0.2268 
     71 C71        32.7012   23.7138    6.5745 C.3       12 UNK         0.0203 
     72 H72        33.2907   26.0524   -5.8565 H         1 UNK         0.0888 
     73 H73        33.2720   24.3547   -5.3759 H         1 UNK         0.0888 
     74 H74        31.9273   25.0227   -6.3030 H         1 UNK         0.0888 
     75 H75        32.7246   24.0631   -3.2276 H         1 UNK         0.3017 
     76 H76        31.5458   26.1412   -1.6268 H         1 UNK         0.0873 
     77 H77        31.9865   23.2328   -0.7665 H         1 UNK         0.0745 
     78 H78        33.3064   24.3554   -0.9086 H         1 UNK         0.0745 
     79 H79        30.2600   23.2994    1.2325 H         1 UNK         0.0705 
     80 H80        31.8403   22.7143    1.6894 H         1 UNK         0.0705 
     81 H81        32.8952   23.4925    3.8706 H         1 UNK         0.1334 
     82 H82        30.0759   24.3339    6.9879 H         1 UNK         0.1417 
     83 H83        28.7966   24.2683    2.8968 H         1 UNK         0.1562 
     84 H84        27.3919   23.5957    5.5780 H         1 UNK         0.0748 
     85 H85        27.2489   24.9855    4.5581 H         1 UNK         0.0748 
     86 H86        29.0377   27.4464    6.8168 H         1 UNK         0.0940 
     87 H87        27.4016   27.9684    7.0863 H         1 UNK         0.0940 
     88 H88        28.6112   27.1158    4.4163 H         1 UNK         0.0703 
     89 H89        25.8389   27.2793    5.0631 H         1 UNK         0.3081 
     90 H90        24.3106   26.8188    3.5377 H         1 UNK         0.0719 
     91 H91        24.1613   29.1805    2.7491 H         1 UNK         0.0809 
     92 H92        24.7551   28.7152    1.1612 H         1 UNK         0.0809 
     93 H93        23.1918   28.1301    1.7298 H         1 UNK         0.0809 
     94 H94        24.9905   26.3014    0.7217 H         1 UNK         0.2990 
     95 H95        25.7755   22.9070    1.1968 H         1 UNK         0.0690 
     96 H96        23.2853   22.7413    1.2469 H         1 UNK         0.0788 
     97 H97        23.9043   22.4384   -0.3675 H         1 UNK         0.0788 
     98 H98        23.1586   23.9909    0.0169 H         1 UNK         0.0788 
     99 H99        25.2885   24.5141   -1.1401 H         1 UNK         0.2993 
    100 H100       27.3836   24.7942   -2.4768 H         1 UNK         0.0949 
    101 H101       27.3982   27.3679   -2.5282 H         1 UNK         0.0767 
    102 H102       25.8989   26.6655   -1.9517 H         1 UNK         0.0767 
    103 H103       27.0399   27.3369   -0.7997 H         1 UNK         0.0767 
    104 H104       29.4231   26.4679   -1.1924 H         1 UNK         0.3013 
    105 H105       26.5318   29.8407    4.3586 H         1 UNK         0.3121 
    106 H106       28.5289   31.8651    4.9864 H         1 UNK         0.0774 
    107 H107       26.7095   33.4246    4.3141 H         1 UNK         0.0815 
    108 H108       25.7485   32.0841    3.7071 H         1 UNK         0.0815 
    109 H109       26.0997   32.2181    5.4315 H         1 UNK         0.0815 
    110 H110       28.1708   29.8918    2.2743 H         1 UNK         0.2987 
    111 H111       28.4563   31.7711    0.1351 H         1 UNK         0.0949 
    112 H112       28.7758   29.6961   -1.2178 H         1 UNK         0.0806 
    113 H113       28.8772   28.7450    0.2592 H         1 UNK         0.0806 
    114 H114       27.3823   29.5849   -0.1539 H         1 UNK         0.0806 
    115 H115       30.2476   32.9633    1.2266 H         1 UNK         0.3010 
    116 H116       32.2590   33.8841    1.0539 H         1 UNK         0.0829 
    117 H117       32.3270   32.3257   -1.5865 H         1 UNK         0.0813 
    118 H118       31.7271   33.9557   -1.3198 H         1 UNK         0.0813 
    119 H119       33.4412   33.6213   -1.1629 H         1 UNK         0.0813 
    120 H120       33.4698   30.9617   -0.5256 H         1 UNK         0.3038 
    121 H121       35.7708   30.7573    1.2299 H         1 UNK         0.0769 
    122 H122       34.7558   28.9279   -1.0171 H         1 UNK         0.0811 
    123 H123       36.3331   28.8229   -0.2481 H         1 UNK         0.0811 
    124 H124       35.9239   30.2380   -1.2026 H         1 UNK         0.0811 
    125 H125       32.5531   29.5016    1.3366 H         1 UNK         0.3204 
    126 H126       32.9815   27.0917    2.8130 H         1 UNK         0.0748 
    127 H127       30.5416   27.2808    3.2373 H         1 UNK         0.0771 
    128 H128       30.5540   28.9553    2.6755 H         1 UNK         0.0771 
    129 H129       30.8832   27.6460    1.5581 H         1 UNK         0.0771 
    130 H130       32.2158   26.7299    5.0515 H         1 UNK         0.2980 
    131 H131       34.0535   28.0231    6.6797 H         1 UNK         0.0545 
    132 H132       30.9157   30.2758    7.7528 H         1 UNK         0.3459 
    133 H133       30.8799   29.3845    6.2513 H         1 UNK         0.3459 
    134 H134       31.8755   26.0762    7.5500 H         1 UNK         0.0616 
    135 H135       33.2996   26.4725    8.4749 H         1 UNK         0.0616 
    136 H136       33.2417   22.7964    6.3372 H         1 UNK         0.0634 
    137 H137       32.2751   23.5649    7.5680 H         1 UNK         0.0634 
@<TRIPOS>BOND
     1    1    2 1    
     2    1   72 1    
     3    1   73 1    
     4    1   74 1    
     5    2    3 2    
     6    2    4 am   BACKBONE|DICT|INTERRES
     7    4    5 1    
     8    4   75 1    
     9    5    6 1    
    10    5   35 1    
    11    5   76 1    
    12    6    7 1    
    13    6   77 1    
    14    6   78 1    
    15    7    8 1    
    16    8    9 1    
    17    8   79 1    
    18    8   80 1    
    19    9   10 ar   
    20    9   14 ar   
    21   10   11 ar   
    22   10   81 1    
    23   11   12 ar   
    24   11   71 1    
    25   12   13 ar   
    26   12   82 1    
    27   13   14 ar   
    28   13   15 1    
    29   14   83 1    
    30   15   16 1    
    31   15   84 1    
    32   15   85 1    
    33   16   17 1    
    34   17   18 1    
    35   17   86 1    
    36   17   87 1    
    37   18   19 1    
    38   18   37 1    
    39   18   88 1    
    40   19   20 am   BACKBONE|DICT|INTERRES
    41   19   89 1    
    42   20   21 2    
    43   20   22 1    
    44   22   23 1    
    45   22   24 1    
    46   22   90 1    
    47   23   91 1    
    48   23   92 1    
    49   23   93 1    
    50   24   25 am   BACKBONE|DICT|INTERRES
    51   24   94 1    
    52   25   26 2    
    53   25   27 1    
    54   27   28 1    
    55   27   29 1    
    56   27   95 1    
    57   28   96 1    
    58   28   97 1    
    59   28   98 1    
    60   29   30 am   BACKBONE|DICT|INTERRES
    61   29   99 1    
    62   30   31 2    
    63   30   32 1    
    64   32   33 1    
    65   32   34 1    
    66   32  100 1    
    67   33  101 1    
    68   33  102 1    
    69   33  103 1    
    70   34   35 am   BACKBONE|DICT|INTERRES
    71   34  104 1    
    72   35   36 2    
    73   37   38 2    
    74   37   39 am   BACKBONE|DICT|INTERRES
    75   39   40 1    
    76   39  105 1    
    77   40   41 1    
    78   40   42 1    
    79   40  106 1    
    80   41  107 1    
    81   41  108 1    
    82   41  109 1    
    83   42   43 2    
    84   42   44 am   BACKBONE|DICT|INTERRES
    85   44   45 1    
    86   44  110 1    
    87   45   46 1    
    88   45   47 1    
    89   45  111 1    
    90   46  112 1    
    91   46  113 1    
    92   46  114 1    
    93   47   48 2    
    94   47   49 am   BACKBONE|DICT|INTERRES
    95   49   50 1    
    96   49  115 1    
    97   50   51 1    
    98   50   52 1    
    99   50  116 1    
   100   51  117 1    
   101   51  118 1    
   102   51  119 1    
   103   52   53 2    
   104   52   54 am   BACKBONE|DICT|INTERRES
   105   54   55 1    
   106   54  120 1    
   107   55   56 1    
   108   55   57 1    
   109   55  121 1    
   110   56  122 1    
   111   56  123 1    
   112   56  124 1    
   113   57   58 2    
   114   57   59 am   BACKBONE|DICT|INTERRES
   115   59   60 1    
   116   59  125 1    
   117   60   61 1    
   118   60   62 1    
   119   60  126 1    
   120   61  127 1    
   121   61  128 1    
   122   61  129 1    
   123   62   63 2    
   124   62   64 am   BACKBONE|DICT|INTERRES
   125   64   65 1    
   126   64  130 1    
   127   65   66 1    
   128   65   69 1    
   129   65  131 1    
   130   66   67 am   BACKBONE|DICT|INTERRES
   131   66   68 2    
   132   67  132 1    
   133   67  133 1    
   134   69   70 1    
   135   69  134 1    
   136   69  135 1    
   137   70   71 1    
   138   71  136 1    
   139   71  137 1    
@<TRIPOS>SUBSTRUCTURE
     1 UNK         1 GROUP             0       ****    0 ROOT    
