@<TRIPOS>MOLECULE
3R136
137   139    1
SMALL
USER_CHARGES


@<TRIPOS>ATOM
      1 CA         29.9275   16.6403    0.7218 C.3       0 UNK        -0.1979 
      2 C          30.7160   17.9305    0.8940 C.2       0 UNK         0.4864 
      3 O          31.8432   18.0284    0.4055 O.2       0 UNK        -0.5359 
      4 N          30.1366   18.9149    1.5921 N.am      1 UNK        -0.4318 
      5 CA         30.7071   20.2494    1.7963 C.3       1 UNK         0.0824 
      6 C6         30.0865   20.9552    3.0310 C.3       12 UNK        -0.0944 
      7 S7         28.2602   21.0695    3.0186 S.3       12 UNK        -0.2672 
      8 C8         27.9333   21.8989    4.6101 C.3       12 UNK         0.0333 
      9 C9         28.1217   23.4046    4.4979 C.ar      12 UNK        -0.0807 
     10 C10        29.3900   23.9656    4.6584 C.ar      12 UNK        -0.0894 
     11 C11        29.5923   25.3322    4.4606 C.ar      12 UNK        -0.0804 
     12 C12        28.5052   26.1517    4.1465 C.ar      12 UNK        -0.0824 
     13 C13        27.2183   25.6109    4.0246 C.ar      12 UNK        -0.0762 
     14 C14        27.0358   24.2343    4.2005 C.ar      12 UNK        -0.0782 
     15 C15        26.0372   26.4824    3.6111 C.3       12 UNK         0.0230 
     16 S16        25.9653   28.0542    4.5274 S.3       12 UNK        -0.2608 
     17 C17        25.5987   29.2498    3.1995 C.3       12 UNK        -0.0989 
     18 CA         26.8867   29.9507    2.7036 C.3       5 UNK         0.0716 
     19 N          27.7205   29.0856    1.8517 N.am      5 UNK        -0.4135 
     20 C          28.9711   29.3697    1.4616 C.2       4 UNK         0.5031 
     21 O          29.5490   30.4025    1.8064 O.2       4 UNK        -0.5229 
     22 CA         29.6955   28.3755    0.5277 C.3       4 UNK         0.0329 
     23 CB         31.2244   28.5378    0.5993 C.3       4 UNK        -0.2001 
     24 N          29.3658   26.9629    0.7483 N.am      4 UNK        -0.4303 
     25 C          28.2284   26.3557    0.3856 C.2       3 UNK         0.5044 
     26 O          27.2545   26.9677   -0.0567 O.2       3 UNK        -0.5152 
     27 CA         28.1544   24.8285    0.5832 C.3       3 UNK         0.0319 
     28 CB         27.0619   24.1636   -0.2798 C.3       3 UNK        -0.2001 
     29 N          29.4389   24.1381    0.4237 N.am      3 UNK        -0.4354 
     30 C          30.1907   24.0594   -0.6859 C.2       2 UNK         0.4964 
     31 O          29.9317   24.6446   -1.7378 O.2       2 UNK        -0.5047 
     32 CA         31.4455   23.1655   -0.6218 C.3       2 UNK         0.0288 
     33 CB         32.7199   24.0205   -0.5148 C.3       2 UNK        -0.2113 
     34 N          31.4247   22.1845    0.4712 N.am      2 UNK        -0.4145 
     35 C          30.6113   21.1177    0.5217 C.2       1 UNK         0.5006 
     36 O          29.8031   20.8344   -0.3678 O.2       1 UNK        -0.5103 
     37 C          26.5720   31.3085    2.0405 C.2       5 UNK         0.5055 
     38 O          26.4624   32.3096    2.7493 O.2       5 UNK        -0.5220 
     39 N          26.5173   31.3436    0.7002 N.am      6 UNK        -0.4450 
     40 CA         26.4167   32.5674   -0.1038 C.3       6 UNK         0.0367 
     41 CB         26.1868   32.1846   -1.5747 C.3       6 UNK        -0.1929 
     42 C          27.6408   33.4990    0.0224 C.2       6 UNK         0.5070 
     43 O          27.5126   34.6951   -0.2379 O.2       6 UNK        -0.5237 
     44 N          28.7900   32.9470    0.4354 N.am      7 UNK        -0.4739 
     45 CA         30.0335   33.6643    0.7195 C.3       7 UNK         0.0276 
     46 CB         31.1824   32.9729   -0.0376 C.3       7 UNK        -0.1927 
     47 C          30.3054   33.7307    2.2358 C.2       7 UNK         0.5013 
     48 O          31.4620   33.8658    2.6335 O.2       7 UNK        -0.5193 
     49 N          29.2474   33.6219    3.0563 N.am      8 UNK        -0.4253 
     50 CA         29.2549   33.6422    4.5253 C.3       8 UNK         0.0242 
     51 CB         29.7297   35.0101    5.0626 C.3       8 UNK        -0.2000 
     52 C          30.0070   32.4496    5.1507 C.2       8 UNK         0.4948 
     53 O          30.6893   32.6143    6.1634 O.2       8 UNK        -0.5275 
     54 N          29.8430   31.2674    4.5392 N.am      9 UNK        -0.4246 
     55 CA         30.3950   29.9650    4.9310 C.3       9 UNK         0.0261 
     56 CB         29.9207   29.5404    6.3376 C.3       9 UNK        -0.1959 
     57 C          31.9185   29.8728    4.7388 C.2       9 UNK         0.5033 
     58 O          32.5934   29.1664    5.4909 O.2       9 UNK        -0.5390 
     59 N          32.4382   30.5473    3.7040 N.am      10 UNK        -0.4215 
     60 CA         33.8527   30.5563    3.3182 C.3       10 UNK         0.0240 
     61 CB         34.1397   31.8272    2.4979 C.3       10 UNK        -0.1982 
     62 C          34.2743   29.2675    2.5813 C.2       10 UNK         0.4970 
     63 O          34.7969   29.3363    1.4675 O.2       10 UNK        -0.4916 
     64 N          34.0323   28.1128    3.2123 N.am      11 UNK        -0.4279 
     65 CA         34.4166   26.7823    2.7141 C.3       11 UNK         0.1003 
     66 C          35.9391   26.4727    2.8234 C.2       11 UNK         0.5709 
     67 N          36.7296   27.2483    3.5568 N.am      11 UNK        -0.7358 
     68 O          36.4136   25.5121    2.2219 O.2       11 UNK        -0.4999 
     69 C69        33.5766   25.6591    3.3755 C.3       12 UNK        -0.0954 
     70 S70        31.8127   25.7343    2.9201 S.3       12 UNK        -0.2268 
     71 C71        30.9995   25.8964    4.5367 C.3       12 UNK         0.0203 
     72 H72        30.4818   15.8021    1.1430 H         1 UNK         0.0888 
     73 H73        28.9569   16.6872    1.2156 H         1 UNK         0.0888 
     74 H74        29.7599   16.4420   -0.3365 H         1 UNK         0.0888 
     75 H75        29.1958   18.7969    1.9410 H         1 UNK         0.3017 
     76 H76        31.7720   20.1175    2.0021 H         1 UNK         0.0873 
     77 H77        30.3789   20.4152    3.9331 H         1 UNK         0.0745 
     78 H78        30.5085   21.9538    3.1387 H         1 UNK         0.0745 
     79 H79        26.9112   21.6744    4.9185 H         1 UNK         0.0705 
     80 H80        28.5815   21.4883    5.3859 H         1 UNK         0.0705 
     81 H81        30.2325   23.3330    4.9000 H         1 UNK         0.1334 
     82 H82        28.6637   27.2069    3.9761 H         1 UNK         0.1417 
     83 H83        26.0537   23.7997    4.0701 H         1 UNK         0.1562 
     84 H84        25.0942   25.9561    3.7669 H         1 UNK         0.0748 
     85 H85        26.1082   26.6682    2.5401 H         1 UNK         0.0748 
     86 H86        24.9040   29.9761    3.6276 H         1 UNK         0.0940 
     87 H87        25.0595   28.7726    2.3792 H         1 UNK         0.0940 
     88 H88        27.4821   30.1921    3.5855 H         1 UNK         0.0703 
     89 H89        27.2882   28.2573    1.4572 H         1 UNK         0.3081 
     90 H90        29.3874   28.6310   -0.4881 H         1 UNK         0.0719 
     91 H91        31.5908   28.3858    1.6137 H         1 UNK         0.0809 
     92 H92        31.7360   27.8296   -0.0529 H         1 UNK         0.0809 
     93 H93        31.5332   29.5366    0.2899 H         1 UNK         0.0809 
     94 H94        30.0945   26.3932    1.1565 H         1 UNK         0.2990 
     95 H95        27.8740   24.6706    1.6203 H         1 UNK         0.0690 
     96 H96        27.0178   23.0889   -0.1013 H         1 UNK         0.0788 
     97 H97        27.2356   24.3210   -1.3447 H         1 UNK         0.0788 
     98 H98        26.0769   24.5698   -0.0469 H         1 UNK         0.0788 
     99 H99        29.7598   23.6340    1.2378 H         1 UNK         0.2993 
    100 H100       31.4875   22.6142   -1.5639 H         1 UNK         0.0949 
    101 H101       33.6172   23.4042   -0.5738 H         1 UNK         0.0767 
    102 H102       32.7738   24.7451   -1.3287 H         1 UNK         0.0767 
    103 H103       32.7590   24.5797    0.4190 H         1 UNK         0.0767 
    104 H104       32.0682   22.3476    1.2325 H         1 UNK         0.3013 
    105 H105       26.6118   30.4756    0.1927 H         1 UNK         0.3121 
    106 H106       25.5462   33.1265    0.2462 H         1 UNK         0.0774 
    107 H107       27.0207   31.6083   -1.9777 H         1 UNK         0.0815 
    108 H108       26.0760   33.0743   -2.1964 H         1 UNK         0.0815 
    109 H109       25.2785   31.5938   -1.6952 H         1 UNK         0.0815 
    110 H110       28.8045   31.9606    0.6685 H         1 UNK         0.2987 
    111 H111       29.9675   34.6957    0.3669 H         1 UNK         0.0949 
    112 H112       31.3437   31.9563    0.3210 H         1 UNK         0.0806 
    113 H113       30.9787   32.9228   -1.1072 H         1 UNK         0.0806 
    114 H114       32.1198   33.5167    0.0858 H         1 UNK         0.0806 
    115 H115       28.3371   33.4801    2.6340 H         1 UNK         0.3010 
    116 H116       28.2131   33.5219    4.8273 H         1 UNK         0.0829 
    117 H117       30.7875   35.1811    4.8610 H         1 UNK         0.0813 
    118 H118       29.1656   35.8295    4.6172 H         1 UNK         0.0813 
    119 H119       29.5926   35.0740    6.1428 H         1 UNK         0.0813 
    120 H120       29.3584   31.2654    3.6486 H         1 UNK         0.3038 
    121 H121       29.9759   29.2425    4.2319 H         1 UNK         0.0769 
    122 H122       30.2122   28.5129    6.5571 H         1 UNK         0.0811 
    123 H123       30.3491   30.1686    7.1187 H         1 UNK         0.0811 
    124 H124       28.8350   29.5904    6.4207 H         1 UNK         0.0811 
    125 H125       31.8075   31.0800    3.1201 H         1 UNK         0.3204 
    126 H126       34.4565   30.6118    4.2265 H         1 UNK         0.0748 
    127 H127       35.1939   31.8905    2.2248 H         1 UNK         0.0771 
    128 H128       33.5599   31.8513    1.5748 H         1 UNK         0.0771 
    129 H129       33.9022   32.7265    3.0665 H         1 UNK         0.0771 
    130 H130       33.5926   28.1535    4.1264 H         1 UNK         0.2980 
    131 H131       34.1958   26.7623    1.6449 H         1 UNK         0.0545 
    132 H132       36.3530   28.0351    4.0596 H         1 UNK         0.3459 
    133 H133       37.7133   27.0364    3.6128 H         1 UNK         0.3459 
    134 H134       33.9332   24.6757    3.0634 H         1 UNK         0.0616 
    135 H135       33.6919   25.6910    4.4600 H         1 UNK         0.0616 
    136 H136       31.5650   25.3613    5.3010 H         1 UNK         0.0634 
    137 H137       30.9845   26.9439    4.8341 H         1 UNK         0.0634 
@<TRIPOS>BOND
     1    1    2 1    
     2    1   72 1    
     3    1   73 1    
     4    1   74 1    
     5    2    3 2    
     6    2    4 am   BACKBONE|DICT|INTERRES
     7    4    5 1    
     8    4   75 1    
     9    5    6 1    
    10    5   35 1    
    11    5   76 1    
    12    6    7 1    
    13    6   77 1    
    14    6   78 1    
    15    7    8 1    
    16    8    9 1    
    17    8   79 1    
    18    8   80 1    
    19    9   10 ar   
    20    9   14 ar   
    21   10   11 ar   
    22   10   81 1    
    23   11   12 ar   
    24   11   71 1    
    25   12   13 ar   
    26   12   82 1    
    27   13   14 ar   
    28   13   15 1    
    29   14   83 1    
    30   15   16 1    
    31   15   84 1    
    32   15   85 1    
    33   16   17 1    
    34   17   18 1    
    35   17   86 1    
    36   17   87 1    
    37   18   19 1    
    38   18   37 1    
    39   18   88 1    
    40   19   20 am   BACKBONE|DICT|INTERRES
    41   19   89 1    
    42   20   21 2    
    43   20   22 1    
    44   22   23 1    
    45   22   24 1    
    46   22   90 1    
    47   23   91 1    
    48   23   92 1    
    49   23   93 1    
    50   24   25 am   BACKBONE|DICT|INTERRES
    51   24   94 1    
    52   25   26 2    
    53   25   27 1    
    54   27   28 1    
    55   27   29 1    
    56   27   95 1    
    57   28   96 1    
    58   28   97 1    
    59   28   98 1    
    60   29   30 am   BACKBONE|DICT|INTERRES
    61   29   99 1    
    62   30   31 2    
    63   30   32 1    
    64   32   33 1    
    65   32   34 1    
    66   32  100 1    
    67   33  101 1    
    68   33  102 1    
    69   33  103 1    
    70   34   35 am   BACKBONE|DICT|INTERRES
    71   34  104 1    
    72   35   36 2    
    73   37   38 2    
    74   37   39 am   BACKBONE|DICT|INTERRES
    75   39   40 1    
    76   39  105 1    
    77   40   41 1    
    78   40   42 1    
    79   40  106 1    
    80   41  107 1    
    81   41  108 1    
    82   41  109 1    
    83   42   43 2    
    84   42   44 am   BACKBONE|DICT|INTERRES
    85   44   45 1    
    86   44  110 1    
    87   45   46 1    
    88   45   47 1    
    89   45  111 1    
    90   46  112 1    
    91   46  113 1    
    92   46  114 1    
    93   47   48 2    
    94   47   49 am   BACKBONE|DICT|INTERRES
    95   49   50 1    
    96   49  115 1    
    97   50   51 1    
    98   50   52 1    
    99   50  116 1    
   100   51  117 1    
   101   51  118 1    
   102   51  119 1    
   103   52   53 2    
   104   52   54 am   BACKBONE|DICT|INTERRES
   105   54   55 1    
   106   54  120 1    
   107   55   56 1    
   108   55   57 1    
   109   55  121 1    
   110   56  122 1    
   111   56  123 1    
   112   56  124 1    
   113   57   58 2    
   114   57   59 am   BACKBONE|DICT|INTERRES
   115   59   60 1    
   116   59  125 1    
   117   60   61 1    
   118   60   62 1    
   119   60  126 1    
   120   61  127 1    
   121   61  128 1    
   122   61  129 1    
   123   62   63 2    
   124   62   64 am   BACKBONE|DICT|INTERRES
   125   64   65 1    
   126   64  130 1    
   127   65   66 1    
   128   65   69 1    
   129   65  131 1    
   130   66   67 am   BACKBONE|DICT|INTERRES
   131   66   68 2    
   132   67  132 1    
   133   67  133 1    
   134   69   70 1    
   135   69  134 1    
   136   69  135 1    
   137   70   71 1    
   138   71  136 1    
   139   71  137 1    
@<TRIPOS>SUBSTRUCTURE
     1 UNK         1 GROUP             0       ****    0 ROOT    
