@<TRIPOS>MOLECULE
3R136
137   139    1
SMALL
USER_CHARGES


@<TRIPOS>ATOM
      1 CA         29.1212   21.3373    4.6745 C.3       0 UNK        -0.1979 
      2 C          28.3992   21.3788    3.3357 C.2       0 UNK         0.4864 
      3 O          27.2315   20.9944    3.2588 O.2       0 UNK        -0.5359 
      4 N          29.0895   21.8345    2.2820 N.am      1 UNK        -0.4318 
      5 CA         28.5614   22.0042    0.9250 C.3       1 UNK         0.0824 
      6 C6         29.6792   22.3461   -0.0923 C.3       12 UNK        -0.0944 
      7 S7         31.0192   21.1076   -0.1157 S.3       12 UNK        -0.2672 
      8 C8         32.4816   22.1367   -0.5029 C.3       12 UNK         0.0333 
      9 C9         32.7816   23.2376    0.5156 C.ar      12 UNK        -0.0807 
     10 C10        33.2873   24.4635    0.0710 C.ar      12 UNK        -0.0894 
     11 C11        33.5759   25.4918    0.9745 C.ar      12 UNK        -0.0804 
     12 C12        33.3455   25.2868    2.3400 C.ar      12 UNK        -0.0824 
     13 C13        32.8527   24.0627    2.8036 C.ar      12 UNK        -0.0762 
     14 C14        32.5901   23.0393    1.8876 C.ar      12 UNK        -0.0782 
     15 C15        32.6339   23.8191    4.2945 C.3       12 UNK         0.0230 
     16 S16        31.4440   24.9636    5.0783 S.3       12 UNK        -0.2608 
     17 C17        30.0208   24.9690    3.9349 C.3       12 UNK        -0.0989 
     18 CA         29.8371   26.3744    3.3069 C.3       5 UNK         0.0716 
     19 N          29.5364   26.3080    1.8769 N.am      5 UNK        -0.4135 
     20 C          29.7287   27.3406    1.0473 C.2       4 UNK         0.5031 
     21 O          30.3012   28.3771    1.3801 O.2       4 UNK        -0.5229 
     22 CA         29.1122   27.2420   -0.3483 C.3       4 UNK         0.0329 
     23 CB         29.6634   26.0628   -1.1694 C.3       4 UNK        -0.2001 
     24 N          27.6630   27.1317   -0.2201 N.am      4 UNK        -0.4303 
     25 C          26.7668   27.6526   -1.0653 C.2       3 UNK         0.5044 
     26 O          27.0680   28.3292   -2.0505 O.2       3 UNK        -0.5152 
     27 CA         25.2816   27.3644   -0.7517 C.3       3 UNK         0.0319 
     28 CB         24.3677   27.5184   -1.9865 C.3       3 UNK        -0.2001 
     29 N          25.0626   26.0634   -0.1003 N.am      3 UNK        -0.4354 
     30 C          25.3824   24.8537   -0.5862 C.2       2 UNK         0.4964 
     31 O          25.8624   24.6512   -1.7037 O.2       2 UNK        -0.5047 
     32 CA         25.1213   23.6597    0.3465 C.3       2 UNK         0.0288 
     33 CB         23.8847   22.8706   -0.1142 C.3       2 UNK        -0.2113 
     34 N          26.2745   22.7587    0.4177 N.am      2 UNK        -0.4145 
     35 C          27.4739   23.0968    0.9112 C.2       1 UNK         0.5006 
     36 O          27.7481   24.2187    1.3484 O.2       1 UNK        -0.5103 
     37 C          28.7469   27.2040    4.0160 C.2       5 UNK         0.5055 
     38 O          27.6151   27.2679    3.5274 O.2       5 UNK        -0.5220 
     39 N          29.1131   27.8612    5.1237 N.am      6 UNK        -0.4450 
     40 CA         28.3265   28.8183    5.9177 C.3       6 UNK         0.0367 
     41 CB         26.9898   28.2253    6.4051 C.3       6 UNK        -0.1929 
     42 C          28.1239   30.1857    5.2367 C.2       6 UNK         0.5070 
     43 O          28.0930   31.1950    5.9424 O.2       6 UNK        -0.5237 
     44 N          28.0340   30.2182    3.8993 N.am      7 UNK        -0.4739 
     45 CA         27.9913   31.4189    3.0596 C.3       7 UNK         0.0276 
     46 CB         27.7193   31.0020    1.6031 C.3       7 UNK        -0.1927 
     47 C          29.3000   32.2195    3.1878 C.2       7 UNK         0.5013 
     48 O          30.2961   31.8696    2.5512 O.2       7 UNK        -0.5193 
     49 N          29.2812   33.2311    4.0698 N.am      8 UNK        -0.4253 
     50 CA         30.4400   33.9735    4.5855 C.3       8 UNK         0.0242 
     51 CB         31.0598   34.8734    3.4971 C.3       8 UNK        -0.2000 
     52 C          31.4590   33.0292    5.2552 C.2       8 UNK         0.4948 
     53 O          32.6547   33.0888    4.9622 O.2       8 UNK        -0.5275 
     54 N          30.9383   32.1294    6.1035 N.am      9 UNK        -0.4246 
     55 CA         31.6028   31.0171    6.7937 C.3       9 UNK         0.0261 
     56 CB         32.7686   31.4893    7.6848 C.3       9 UNK        -0.1959 
     57 C          32.0321   29.8808    5.8505 C.2       9 UNK         0.5033 
     58 O          31.6779   28.7286    6.1051 O.2       9 UNK        -0.5390 
     59 N          32.7580   30.2091    4.7788 N.am      10 UNK        -0.4215 
     60 CA         33.2575   29.2596    3.7935 C.3       10 UNK         0.0240 
     61 CB         34.5050   28.5361    4.3431 C.3       10 UNK        -0.1982 
     62 C          33.5508   29.9941    2.4830 C.2       10 UNK         0.4970 
     63 O          34.6034   30.6247    2.3699 O.2       10 UNK        -0.4916 
     64 N          32.6354   29.8621    1.5166 N.am      11 UNK        -0.4279 
     65 CA         32.7716   30.2836    0.1144 C.3       11 UNK         0.1003 
     66 C          33.0357   31.8047   -0.0784 C.2       11 UNK         0.5709 
     67 N          32.3950   32.6612    0.7055 N.am      11 UNK        -0.7358 
     68 O          33.8000   32.2188   -0.9479 O.2       11 UNK        -0.4999 
     69 C69        33.7380   29.3563   -0.6787 C.3       12 UNK        -0.0954 
     70 S70        33.1151   27.6402   -0.7395 S.3       12 UNK        -0.2268 
     71 C71        34.1759   26.8048    0.4817 C.3       12 UNK         0.0203 
     72 H72        28.6383   22.0111    5.3817 H         1 UNK         0.0888 
     73 H73        29.0894   20.3293    5.0872 H         1 UNK         0.0888 
     74 H74        30.1657   21.6323    4.5849 H         1 UNK         0.0888 
     75 H75        30.0485   22.1184    2.4012 H         1 UNK         0.3017 
     76 H76        28.1095   21.0551    0.6286 H         1 UNK         0.0873 
     77 H77        30.1093   23.3203    0.1418 H         1 UNK         0.0745 
     78 H78        29.2713   22.4235   -1.1020 H         1 UNK         0.0745 
     79 H79        32.3359   22.5698   -1.4939 H         1 UNK         0.0705 
     80 H80        33.3542   21.4866   -0.5758 H         1 UNK         0.0705 
     81 H81        33.4646   24.6209   -0.9843 H         1 UNK         0.1334 
     82 H82        33.5609   26.0710    3.0511 H         1 UNK         0.1417 
     83 H83        32.2407   22.0804    2.2432 H         1 UNK         0.1562 
     84 H84        33.5917   23.9116    4.8082 H         1 UNK         0.0748 
     85 H85        32.2969   22.7976    4.4734 H         1 UNK         0.0748 
     86 H86        29.1275   24.6310    4.4646 H         1 UNK         0.0940 
     87 H87        30.1900   24.2246    3.1589 H         1 UNK         0.0940 
     88 H88        30.7759   26.9237    3.4005 H         1 UNK         0.0703 
     89 H89        28.9654   25.5195    1.5785 H         1 UNK         0.3081 
     90 H90        29.3687   28.1688   -0.8666 H         1 UNK         0.0719 
     91 H91        29.1934   25.1235   -0.8852 H         1 UNK         0.0809 
     92 H92        29.4743   26.2102   -2.2326 H         1 UNK         0.0809 
     93 H93        30.7398   25.9477   -1.0424 H         1 UNK         0.0809 
     94 H94        27.3254   26.6121    0.5800 H         1 UNK         0.2990 
     95 H95        24.9802   28.1212   -0.0258 H         1 UNK         0.0690 
     96 H96        23.3247   27.3259   -1.7351 H         1 UNK         0.0788 
     97 H97        24.6516   26.8355   -2.7879 H         1 UNK         0.0788 
     98 H98        24.4202   28.5307   -2.3893 H         1 UNK         0.0788 
     99 H99        24.6731   26.1113    0.8316 H         1 UNK         0.2993 
    100 H100       24.9352   24.0321    1.3565 H         1 UNK         0.0949 
    101 H101       24.0242   22.4474   -1.1100 H         1 UNK         0.0767 
    102 H102       23.6567   22.0531    0.5703 H         1 UNK         0.0767 
    103 H103       23.0042   23.5136   -0.1541 H         1 UNK         0.0767 
    104 H104       26.1372   21.8245    0.0608 H         1 UNK         0.3013 
    105 H105       30.0864   27.7970    5.4174 H         1 UNK         0.3121 
    106 H106       28.9304   29.0089    6.8061 H         1 UNK         0.0774 
    107 H107       26.5106   28.8950    7.1203 H         1 UNK         0.0815 
    108 H108       26.2835   28.0735    5.5888 H         1 UNK         0.0815 
    109 H109       27.1381   27.2686    6.9055 H         1 UNK         0.0815 
    110 H110       28.0464   29.3284    3.4158 H         1 UNK         0.2987 
    111 H111       27.1596   32.0423    3.3947 H         1 UNK         0.0949 
    112 H112       27.6670   31.8755    0.9522 H         1 UNK         0.0806 
    113 H113       28.5046   30.3543    1.2122 H         1 UNK         0.0806 
    114 H114       26.7720   30.4705    1.5108 H         1 UNK         0.0806 
    115 H115       28.4129   33.3975    4.5611 H         1 UNK         0.3010 
    116 H116       30.0649   34.6262    5.3754 H         1 UNK         0.0829 
    117 H117       30.3145   35.5355    3.0568 H         1 UNK         0.0813 
    118 H118       31.8474   35.5018    3.9145 H         1 UNK         0.0813 
    119 H119       31.5057   34.2894    2.6943 H         1 UNK         0.0813 
    120 H120       29.9269   32.1253    6.1974 H         1 UNK         0.3038 
    121 H121       30.8442   30.5990    7.4573 H         1 UNK         0.0769 
    122 H122       33.1656   30.6598    8.2714 H         1 UNK         0.0811 
    123 H123       32.4445   32.2570    8.3873 H         1 UNK         0.0811 
    124 H124       33.5966   31.8951    7.1031 H         1 UNK         0.0811 
    125 H125       32.9652   31.1936    4.6182 H         1 UNK         0.3204 
    126 H126       32.4879   28.5115    3.5945 H         1 UNK         0.0748 
    127 H127       34.9770   27.9178    3.5799 H         1 UNK         0.0771 
    128 H128       35.2567   29.2442    4.6938 H         1 UNK         0.0771 
    129 H129       34.2484   27.8818    5.1766 H         1 UNK         0.0771 
    130 H130       31.7717   29.3542    1.7023 H         1 UNK         0.2980 
    131 H131       31.7811   30.1416   -0.3198 H         1 UNK         0.0545 
    132 H132       31.7331   32.3237    1.4012 H         1 UNK         0.3459 
    133 H133       32.5514   33.6486    0.5898 H         1 UNK         0.3459 
    134 H134       34.7437   29.3818   -0.2562 H         1 UNK         0.0616 
    135 H135       33.8319   29.6943   -1.7119 H         1 UNK         0.0616 
    136 H136       35.1500   26.6099    0.0316 H         1 UNK         0.0634 
    137 H137       34.3537   27.4757    1.3202 H         1 UNK         0.0634 
@<TRIPOS>BOND
     1    1    2 1    
     2    1   72 1    
     3    1   73 1    
     4    1   74 1    
     5    2    3 2    
     6    2    4 am   BACKBONE|DICT|INTERRES
     7    4    5 1    
     8    4   75 1    
     9    5    6 1    
    10    5   35 1    
    11    5   76 1    
    12    6    7 1    
    13    6   77 1    
    14    6   78 1    
    15    7    8 1    
    16    8    9 1    
    17    8   79 1    
    18    8   80 1    
    19    9   10 ar   
    20    9   14 ar   
    21   10   11 ar   
    22   10   81 1    
    23   11   12 ar   
    24   11   71 1    
    25   12   13 ar   
    26   12   82 1    
    27   13   14 ar   
    28   13   15 1    
    29   14   83 1    
    30   15   16 1    
    31   15   84 1    
    32   15   85 1    
    33   16   17 1    
    34   17   18 1    
    35   17   86 1    
    36   17   87 1    
    37   18   19 1    
    38   18   37 1    
    39   18   88 1    
    40   19   20 am   BACKBONE|DICT|INTERRES
    41   19   89 1    
    42   20   21 2    
    43   20   22 1    
    44   22   23 1    
    45   22   24 1    
    46   22   90 1    
    47   23   91 1    
    48   23   92 1    
    49   23   93 1    
    50   24   25 am   BACKBONE|DICT|INTERRES
    51   24   94 1    
    52   25   26 2    
    53   25   27 1    
    54   27   28 1    
    55   27   29 1    
    56   27   95 1    
    57   28   96 1    
    58   28   97 1    
    59   28   98 1    
    60   29   30 am   BACKBONE|DICT|INTERRES
    61   29   99 1    
    62   30   31 2    
    63   30   32 1    
    64   32   33 1    
    65   32   34 1    
    66   32  100 1    
    67   33  101 1    
    68   33  102 1    
    69   33  103 1    
    70   34   35 am   BACKBONE|DICT|INTERRES
    71   34  104 1    
    72   35   36 2    
    73   37   38 2    
    74   37   39 am   BACKBONE|DICT|INTERRES
    75   39   40 1    
    76   39  105 1    
    77   40   41 1    
    78   40   42 1    
    79   40  106 1    
    80   41  107 1    
    81   41  108 1    
    82   41  109 1    
    83   42   43 2    
    84   42   44 am   BACKBONE|DICT|INTERRES
    85   44   45 1    
    86   44  110 1    
    87   45   46 1    
    88   45   47 1    
    89   45  111 1    
    90   46  112 1    
    91   46  113 1    
    92   46  114 1    
    93   47   48 2    
    94   47   49 am   BACKBONE|DICT|INTERRES
    95   49   50 1    
    96   49  115 1    
    97   50   51 1    
    98   50   52 1    
    99   50  116 1    
   100   51  117 1    
   101   51  118 1    
   102   51  119 1    
   103   52   53 2    
   104   52   54 am   BACKBONE|DICT|INTERRES
   105   54   55 1    
   106   54  120 1    
   107   55   56 1    
   108   55   57 1    
   109   55  121 1    
   110   56  122 1    
   111   56  123 1    
   112   56  124 1    
   113   57   58 2    
   114   57   59 am   BACKBONE|DICT|INTERRES
   115   59   60 1    
   116   59  125 1    
   117   60   61 1    
   118   60   62 1    
   119   60  126 1    
   120   61  127 1    
   121   61  128 1    
   122   61  129 1    
   123   62   63 2    
   124   62   64 am   BACKBONE|DICT|INTERRES
   125   64   65 1    
   126   64  130 1    
   127   65   66 1    
   128   65   69 1    
   129   65  131 1    
   130   66   67 am   BACKBONE|DICT|INTERRES
   131   66   68 2    
   132   67  132 1    
   133   67  133 1    
   134   69   70 1    
   135   69  134 1    
   136   69  135 1    
   137   70   71 1    
   138   71  136 1    
   139   71  137 1    
@<TRIPOS>SUBSTRUCTURE
     1 UNK         1 GROUP             0       ****    0 ROOT    
