@<TRIPOS>MOLECULE
3R136
137   139    1
SMALL
USER_CHARGES


@<TRIPOS>ATOM
      1 CA         32.1310   26.2354    0.0410 C.3       0 UNK        -0.1979 
      2 C          30.8487   25.5100    0.4121 C.2       0 UNK         0.4864 
      3 O          29.7900   26.1369    0.4710 O.2       0 UNK        -0.5359 
      4 N          30.9352   24.1938    0.6529 N.am      1 UNK        -0.4318 
      5 CA         29.8085   23.3150    0.9944 C.3       1 UNK         0.0824 
      6 C6         30.2539   21.8657    1.3320 C.3       12 UNK        -0.0944 
      7 S7         31.6565   21.7601    2.4940 S.3       12 UNK        -0.2672 
      8 C8         30.8314   21.2689    4.0393 C.3       12 UNK         0.0333 
      9 C9         30.1525   22.4561    4.7010 C.ar      12 UNK        -0.0807 
     10 C10        30.9327   23.4625    5.2731 C.ar      12 UNK        -0.0894 
     11 C11        30.3357   24.5737    5.8704 C.ar      12 UNK        -0.0804 
     12 C12        28.9423   24.6568    5.9288 C.ar      12 UNK        -0.0824 
     13 C13        28.1491   23.6475    5.3722 C.ar      12 UNK        -0.0762 
     14 C14        28.7591   22.5522    4.7517 C.ar      12 UNK        -0.0782 
     15 C15        26.6327   23.7259    5.4563 C.3       12 UNK         0.0230 
     16 S16        25.8979   24.3340    3.9079 S.3       12 UNK        -0.2608 
     17 C17        26.3671   26.0985    3.9350 C.3       12 UNK        -0.0989 
     18 CA         27.2895   26.4869    2.7458 C.3       5 UNK         0.0716 
     19 N          26.6749   26.2149    1.4384 N.am      5 UNK        -0.4135 
     20 C          25.5777   26.8027    0.9342 C.2       4 UNK         0.5031 
     21 O          24.9376   27.6888    1.5042 O.2       4 UNK        -0.5229 
     22 CA         25.1084   26.2917   -0.4395 C.3       4 UNK         0.0329 
     23 CB         23.9418   27.1108   -1.0340 C.3       4 UNK        -0.2001 
     24 N          26.2083   26.1713   -1.3987 N.am      4 UNK        -0.4303 
     25 C          26.9933   27.1416   -1.8925 C.2       3 UNK         0.5044 
     26 O          26.8683   28.3337   -1.6104 O.2       3 UNK        -0.5152 
     27 CA         28.1054   26.7024   -2.8721 C.3       3 UNK         0.0319 
     28 CB         29.3355   27.6271   -2.8232 C.3       3 UNK        -0.2001 
     29 N          28.5447   25.3258   -2.6311 N.am      3 UNK        -0.4354 
     30 C          27.9585   24.2217   -3.1142 C.2       2 UNK         0.4964 
     31 O          27.0170   24.2429   -3.9063 O.2       2 UNK        -0.5047 
     32 CA         28.4664   22.8665   -2.5918 C.3       2 UNK         0.0288 
     33 CB         29.3141   22.1613   -3.6633 C.3       2 UNK        -0.2113 
     34 N          29.2443   22.9571   -1.3522 N.am      2 UNK        -0.4145 
     35 C          28.7663   23.2908   -0.1419 C.2       1 UNK         0.5006 
     36 O          27.5978   23.6152    0.0783 O.2       1 UNK        -0.5103 
     37 C          27.7651   27.9536    2.8267 C.2       5 UNK         0.5055 
     38 O          27.2696   28.7212    3.6560 O.2       5 UNK        -0.5220 
     39 N          28.6862   28.3307    1.9291 N.am      6 UNK        -0.4450 
     40 CA         29.1535   29.7028    1.6886 C.3       6 UNK         0.0367 
     41 CB         29.8341   29.7603    0.3096 C.3       6 UNK        -0.1929 
     42 C          30.0443   30.2939    2.8030 C.2       6 UNK         0.5070 
     43 O          31.0923   30.8719    2.5112 O.2       6 UNK        -0.5237 
     44 N          29.5958   30.1933    4.0601 N.am      7 UNK        -0.4739 
     45 CA         30.2778   30.6524    5.2772 C.3       7 UNK         0.0276 
     46 CB         29.4374   30.2495    6.5001 C.3       7 UNK        -0.1927 
     47 C          30.5898   32.1587    5.3183 C.2       7 UNK         0.5013 
     48 O          31.5039   32.5628    6.0373 O.2       7 UNK        -0.5193 
     49 N          29.8494   32.9558    4.5349 N.am      8 UNK        -0.4253 
     50 CA         30.1038   34.3799    4.3044 C.3       8 UNK         0.0242 
     51 CB         28.9117   34.9891    3.5486 C.3       8 UNK        -0.2000 
     52 C          31.4184   34.6505    3.5458 C.2       8 UNK         0.4948 
     53 O          31.9802   35.7360    3.6999 O.2       8 UNK        -0.5275 
     54 N          31.8830   33.6727    2.7553 N.am      9 UNK        -0.4246 
     55 CA         33.1801   33.6815    2.0859 C.3       9 UNK         0.0261 
     56 CB         33.0158   33.2127    0.6275 C.3       9 UNK        -0.1959 
     57 C          34.1471   32.7892    2.8751 C.2       9 UNK         0.5033 
     58 O          35.0775   33.3084    3.4930 O.2       9 UNK        -0.5390 
     59 N          33.8864   31.4767    2.8569 N.am      10 UNK        -0.4215 
     60 CA         34.6183   30.3973    3.5176 C.3       10 UNK         0.0240 
     61 CB         36.1111   30.3822    3.1218 C.3       10 UNK        -0.1982 
     62 C          33.9709   29.0735    3.0951 C.2       10 UNK         0.4970 
     63 O          33.4988   28.9648    1.9617 O.2       10 UNK        -0.4916 
     64 N          34.0076   28.0813    3.9857 N.am      11 UNK        -0.4279 
     65 CA         33.5440   26.7115    3.7408 C.3       11 UNK         0.1003 
     66 C          34.3232   25.6989    4.6179 C.2       11 UNK         0.5709 
     67 N          34.3092   24.4231    4.2567 N.am      11 UNK        -0.7358 
     68 O          34.9384   26.0553    5.6222 O.2       11 UNK        -0.4999 
     69 C69        31.9988   26.5583    3.8399 C.3       12 UNK        -0.0954 
     70 S70        31.2556   27.1572    5.3989 S.3       12 UNK        -0.2268 
     71 C71        31.2022   25.6762    6.4577 C.3       12 UNK         0.0203 
     72 H72        32.2195   27.1529    0.6192 H         1 UNK         0.0888 
     73 H73        33.0152   25.6279    0.2325 H         1 UNK         0.0888 
     74 H74        32.1189   26.5020   -1.0152 H         1 UNK         0.0888 
     75 H75        31.8360   23.7382    0.6132 H         1 UNK         0.3017 
     76 H76        29.3262   23.7364    1.8793 H         1 UNK         0.0873 
     77 H77        29.4098   21.2990    1.7293 H         1 UNK         0.0745 
     78 H78        30.5671   21.3334    0.4317 H         1 UNK         0.0745 
     79 H79        30.1244   20.4605    3.8472 H         1 UNK         0.0705 
     80 H80        31.5797   20.8624    4.7213 H         1 UNK         0.0705 
     81 H81        32.0099   23.3849    5.2361 H         1 UNK         0.1334 
     82 H82        28.4805   25.5093    6.4075 H         1 UNK         0.1417 
     83 H83        28.1470   21.7747    4.3148 H         1 UNK         0.1562 
     84 H84        26.3207   24.3621    6.2863 H         1 UNK         0.0748 
     85 H85        26.2296   22.7346    5.6692 H         1 UNK         0.0748 
     86 H86        26.8524   26.3337    4.8826 H         1 UNK         0.0940 
     87 H87        25.4508   26.6912    3.9248 H         1 UNK         0.0940 
     88 H88        28.1866   25.8681    2.8056 H         1 UNK         0.0703 
     89 H89        27.1214   25.4884    0.8892 H         1 UNK         0.3081 
     90 H90        24.7420   25.2776   -0.2717 H         1 UNK         0.0719 
     91 H91        24.2137   28.1562   -1.1830 H         1 UNK         0.0809 
     92 H92        23.6218   26.7067   -1.9943 H         1 UNK         0.0809 
     93 H93        23.0760   27.0931   -0.3710 H         1 UNK         0.0809 
     94 H94        26.4172   25.2268   -1.6907 H         1 UNK         0.2990 
     95 H95        27.6814   26.7703   -3.8760 H         1 UNK         0.0690 
     96 H96        30.0815   27.3312   -3.5608 H         1 UNK         0.0788 
     97 H97        29.8110   27.6103   -1.8430 H         1 UNK         0.0788 
     98 H98        29.0637   28.6610   -3.0398 H         1 UNK         0.0788 
     99 H99        29.2767   25.2118   -1.9451 H         1 UNK         0.2993 
    100 H100       27.5867   22.2517   -2.3889 H         1 UNK         0.0949 
    101 H101       28.7533   22.0455   -4.5921 H         1 UNK         0.0767 
    102 H102       30.2192   22.7234   -3.8974 H         1 UNK         0.0767 
    103 H103       29.6111   21.1628   -3.3415 H         1 UNK         0.0767 
    104 H104       30.2270   22.7373   -1.4282 H         1 UNK         0.3013 
    105 H105       29.0618   27.6116    1.3114 H         1 UNK         0.3121 
    106 H106       28.2702   30.3424    1.6376 H         1 UNK         0.0774 
    107 H107       30.7155   29.1195    0.2698 H         1 UNK         0.0815 
    108 H108       30.1546   30.7742    0.0665 H         1 UNK         0.0815 
    109 H109       29.1485   29.4481   -0.4770 H         1 UNK         0.0815 
    110 H110       28.7075   29.7108    4.1847 H         1 UNK         0.2987 
    111 H111       31.2366   30.1328    5.3259 H         1 UNK         0.0949 
    112 H112       28.4617   30.7369    6.4956 H         1 UNK         0.0806 
    113 H113       29.2720   29.1726    6.5335 H         1 UNK         0.0806 
    114 H114       29.9387   30.5274    7.4282 H         1 UNK         0.0806 
    115 H115       29.1113   32.5278    3.9953 H         1 UNK         0.3010 
    116 H116       30.1812   34.8687    5.2780 H         1 UNK         0.0829 
    117 H117       27.9839   34.8731    4.1092 H         1 UNK         0.0813 
    118 H118       29.0584   36.0580    3.3866 H         1 UNK         0.0813 
    119 H119       28.7747   34.5275    2.5697 H         1 UNK         0.0813 
    120 H120       31.3829   32.7884    2.7295 H         1 UNK         0.3038 
    121 H121       33.5962   34.6911    2.0662 H         1 UNK         0.0769 
    122 H122       32.5441   32.2321    0.5549 H         1 UNK         0.0811 
    123 H123       33.9831   33.1492    0.1274 H         1 UNK         0.0811 
    124 H124       32.4041   33.9137    0.0595 H         1 UNK         0.0811 
    125 H125       33.0501   31.1525    2.3726 H         1 UNK         0.3204 
    126 H126       34.5170   30.5224    4.5972 H         1 UNK         0.0748 
    127 H127       36.6153   29.5021    3.5234 H         1 UNK         0.0771 
    128 H128       36.2381   30.3642    2.0386 H         1 UNK         0.0771 
    129 H129       36.6447   31.2499    3.5080 H         1 UNK         0.0771 
    130 H130       34.4514   28.2144    4.8846 H         1 UNK         0.2980 
    131 H131       33.8279   26.4656    2.7156 H         1 UNK         0.0545 
    132 H132       34.8195   23.7563    4.8140 H         1 UNK         0.3459 
    133 H133       33.8170   24.1131    3.4343 H         1 UNK         0.3459 
    134 H134       31.5374   27.1413    3.0419 H         1 UNK         0.0616 
    135 H135       31.6949   25.5304    3.6443 H         1 UNK         0.0616 
    136 H136       32.2172   25.3196    6.6359 H         1 UNK         0.0634 
    137 H137       30.8081   25.9618    7.4339 H         1 UNK         0.0634 
@<TRIPOS>BOND
     1    1    2 1    
     2    1   72 1    
     3    1   73 1    
     4    1   74 1    
     5    2    3 2    
     6    2    4 am   BACKBONE|DICT|INTERRES
     7    4    5 1    
     8    4   75 1    
     9    5    6 1    
    10    5   35 1    
    11    5   76 1    
    12    6    7 1    
    13    6   77 1    
    14    6   78 1    
    15    7    8 1    
    16    8    9 1    
    17    8   79 1    
    18    8   80 1    
    19    9   10 ar   
    20    9   14 ar   
    21   10   11 ar   
    22   10   81 1    
    23   11   12 ar   
    24   11   71 1    
    25   12   13 ar   
    26   12   82 1    
    27   13   14 ar   
    28   13   15 1    
    29   14   83 1    
    30   15   16 1    
    31   15   84 1    
    32   15   85 1    
    33   16   17 1    
    34   17   18 1    
    35   17   86 1    
    36   17   87 1    
    37   18   19 1    
    38   18   37 1    
    39   18   88 1    
    40   19   20 am   BACKBONE|DICT|INTERRES
    41   19   89 1    
    42   20   21 2    
    43   20   22 1    
    44   22   23 1    
    45   22   24 1    
    46   22   90 1    
    47   23   91 1    
    48   23   92 1    
    49   23   93 1    
    50   24   25 am   BACKBONE|DICT|INTERRES
    51   24   94 1    
    52   25   26 2    
    53   25   27 1    
    54   27   28 1    
    55   27   29 1    
    56   27   95 1    
    57   28   96 1    
    58   28   97 1    
    59   28   98 1    
    60   29   30 am   BACKBONE|DICT|INTERRES
    61   29   99 1    
    62   30   31 2    
    63   30   32 1    
    64   32   33 1    
    65   32   34 1    
    66   32  100 1    
    67   33  101 1    
    68   33  102 1    
    69   33  103 1    
    70   34   35 am   BACKBONE|DICT|INTERRES
    71   34  104 1    
    72   35   36 2    
    73   37   38 2    
    74   37   39 am   BACKBONE|DICT|INTERRES
    75   39   40 1    
    76   39  105 1    
    77   40   41 1    
    78   40   42 1    
    79   40  106 1    
    80   41  107 1    
    81   41  108 1    
    82   41  109 1    
    83   42   43 2    
    84   42   44 am   BACKBONE|DICT|INTERRES
    85   44   45 1    
    86   44  110 1    
    87   45   46 1    
    88   45   47 1    
    89   45  111 1    
    90   46  112 1    
    91   46  113 1    
    92   46  114 1    
    93   47   48 2    
    94   47   49 am   BACKBONE|DICT|INTERRES
    95   49   50 1    
    96   49  115 1    
    97   50   51 1    
    98   50   52 1    
    99   50  116 1    
   100   51  117 1    
   101   51  118 1    
   102   51  119 1    
   103   52   53 2    
   104   52   54 am   BACKBONE|DICT|INTERRES
   105   54   55 1    
   106   54  120 1    
   107   55   56 1    
   108   55   57 1    
   109   55  121 1    
   110   56  122 1    
   111   56  123 1    
   112   56  124 1    
   113   57   58 2    
   114   57   59 am   BACKBONE|DICT|INTERRES
   115   59   60 1    
   116   59  125 1    
   117   60   61 1    
   118   60   62 1    
   119   60  126 1    
   120   61  127 1    
   121   61  128 1    
   122   61  129 1    
   123   62   63 2    
   124   62   64 am   BACKBONE|DICT|INTERRES
   125   64   65 1    
   126   64  130 1    
   127   65   66 1    
   128   65   69 1    
   129   65  131 1    
   130   66   67 am   BACKBONE|DICT|INTERRES
   131   66   68 2    
   132   67  132 1    
   133   67  133 1    
   134   69   70 1    
   135   69  134 1    
   136   69  135 1    
   137   70   71 1    
   138   71  136 1    
   139   71  137 1    
@<TRIPOS>SUBSTRUCTURE
     1 UNK         1 GROUP             0       ****    0 ROOT    
