@<TRIPOS>MOLECULE
3R136
137   139    1
SMALL
USER_CHARGES


@<TRIPOS>ATOM
      1 CA         35.1541   27.0698   -1.5299 C.3       0 UNK        -0.1979 
      2 C          33.7913   26.7881   -0.9169 C.2       0 UNK         0.4864 
      3 O          33.4197   27.4413    0.0597 O.2       0 UNK        -0.5359 
      4 N          33.0489   25.8259   -1.4753 N.am      1 UNK        -0.4318 
      5 CA         31.6982   25.4630   -1.0513 C.3       1 UNK         0.0824 
      6 C6         31.6375   24.0206   -0.4786 C.3       12 UNK        -0.0944 
      7 S7         30.3941   23.8829    0.8494 S.3       12 UNK        -0.2672 
      8 C8         31.4128   23.3515    2.2635 C.3       12 UNK         0.0333 
      9 C9         30.8467   23.8747    3.5735 C.ar      12 UNK        -0.0807 
     10 C10        31.4220   24.9925    4.1825 C.ar      12 UNK        -0.0894 
     11 C11        30.8999   25.5029    5.3723 C.ar      12 UNK        -0.0804 
     12 C12        29.8057   24.8734    5.9695 C.ar      12 UNK        -0.0824 
     13 C13        29.2218   23.7515    5.3719 C.ar      12 UNK        -0.0762 
     14 C14        29.7483   23.2534    4.1752 C.ar      12 UNK        -0.0782 
     15 C15        28.0120   23.0873    6.0107 C.3       12 UNK         0.0230 
     16 S16        26.4638   23.5773    5.1868 S.3       12 UNK        -0.2608 
     17 C17        26.3986   25.3689    5.5393 C.3       12 UNK        -0.0989 
     18 CA         26.7905   26.2347    4.3139 C.3       5 UNK         0.0716 
     19 N          25.9401   25.9251    3.1566 N.am      5 UNK        -0.4135 
     20 C          25.9646   26.4960    1.9453 C.2       4 UNK         0.5031 
     21 O          26.6594   27.4743    1.6625 O.2       4 UNK        -0.5229 
     22 CA         25.0599   25.8220    0.8941 C.3       4 UNK         0.0329 
     23 CB         23.5793   25.7871    1.3371 C.3       4 UNK        -0.2001 
     24 N          25.1990   26.3771   -0.4586 N.am      4 UNK        -0.4303 
     25 C          24.7914   27.5697   -0.9198 C.2       3 UNK         0.5044 
     26 O          24.1737   28.3993   -0.2497 O.2       3 UNK        -0.5152 
     27 CA         25.0923   27.8526   -2.4104 C.3       3 UNK         0.0319 
     28 CB         25.0051   29.3476   -2.7870 C.3       3 UNK        -0.2001 
     29 N          26.3535   27.2705   -2.8964 N.am      3 UNK        -0.4354 
     30 C          27.5856   27.5064   -2.4216 C.2       2 UNK         0.4964 
     31 O          27.8431   28.2585   -1.4802 O.2       2 UNK        -0.5047 
     32 CA         28.7369   26.7868   -3.1285 C.3       2 UNK         0.0288 
     33 CB         29.3130   27.6628   -4.2584 C.3       2 UNK        -0.2113 
     34 N          29.7564   26.4983   -2.1254 N.am      2 UNK        -0.4145 
     35 C          30.7727   25.6417   -2.2639 C.2       1 UNK         0.5006 
     36 O          31.0047   25.0080   -3.2971 O.2       1 UNK        -0.5103 
     37 C          26.8180   27.7242    4.7167 C.2       5 UNK         0.5055 
     38 O          27.8398   28.1928    5.2183 O.2       5 UNK        -0.5220 
     39 N          25.7028   28.4355    4.5013 N.am      6 UNK        -0.4450 
     40 CA         25.5551   29.8598    4.8039 C.3       6 UNK         0.0367 
     41 CB         24.0609   30.2218    4.7957 C.3       6 UNK        -0.1929 
     42 C          26.3323   30.7823    3.8469 C.2       6 UNK         0.5070 
     43 O          26.6918   31.8878    4.2536 O.2       6 UNK        -0.5237 
     44 N          26.5566   30.3390    2.6025 N.am      7 UNK        -0.4739 
     45 CA         27.2248   31.1190    1.5562 C.3       7 UNK         0.0276 
     46 CB         26.3927   31.0244    0.2714 C.3       7 UNK        -0.1927 
     47 C          28.6634   30.6484    1.2888 C.2       7 UNK         0.5013 
     48 O          29.4305   31.4051    0.6906 O.2       7 UNK        -0.5193 
     49 N          29.0027   29.4241    1.7166 N.am      8 UNK        -0.4253 
     50 CA         30.3192   28.8014    1.5689 C.3       8 UNK         0.0242 
     51 CB         30.2575   27.3830    2.1480 C.3       8 UNK        -0.2000 
     52 C          31.4502   29.6095    2.2330 C.2       8 UNK         0.4948 
     53 O          31.2636   30.1546    3.3235 O.2       8 UNK        -0.5275 
     54 N          32.6058   29.6519    1.5621 N.am      9 UNK        -0.4246 
     55 CA         33.7893   30.4129    1.9634 C.3       9 UNK         0.0261 
     56 CB         34.4173   31.0431    0.7094 C.3       9 UNK        -0.1959 
     57 C          34.8312   29.5514    2.6926 C.2       9 UNK         0.5033 
     58 O          35.6572   30.1110    3.4148 O.2       9 UNK        -0.5390 
     59 N          34.7902   28.2228    2.5019 N.am      10 UNK        -0.4215 
     60 CA         35.7603   27.2491    3.0251 C.3       10 UNK         0.0240 
     61 CB         35.3806   25.8403    2.5387 C.3       10 UNK        -0.1982 
     62 C          35.9603   27.2538    4.5543 C.2       10 UNK         0.4970 
     63 O          37.0269   26.8436    5.0143 O.2       10 UNK        -0.4916 
     64 N          34.9573   27.7224    5.3071 N.am      11 UNK        -0.4279 
     65 CA         35.0355   27.9342    6.7618 C.3       11 UNK         0.1003 
     66 C          35.8224   29.2119    7.1806 C.2       11 UNK         0.5709 
     67 N          36.2058   30.1005    6.2707 N.am      11 UNK        -0.7358 
     68 O          36.1032   29.3952    8.3628 O.2       11 UNK        -0.4999 
     69 C69        33.6346   27.8954    7.4275 C.3       12 UNK        -0.0954 
     70 S70        32.8063   26.2897    7.1885 S.3       12 UNK        -0.2268 
     71 C71        31.5130   26.7432    5.9975 C.3       12 UNK         0.0203 
     72 H72        35.9323   26.9748   -0.7733 H         1 UNK         0.0888 
     73 H73        35.3854   26.3825   -2.3434 H         1 UNK         0.0888 
     74 H74        35.1836   28.0857   -1.9225 H         1 UNK         0.0888 
     75 H75        33.3753   25.3522   -2.3070 H         1 UNK         0.3017 
     76 H76        31.3684   26.1589   -0.2785 H         1 UNK         0.0873 
     77 H77        31.4208   23.2762   -1.2476 H         1 UNK         0.0745 
     78 H78        32.6124   23.7364   -0.0808 H         1 UNK         0.0745 
     79 H79        31.4626   22.2619    2.2836 H         1 UNK         0.0705 
     80 H80        32.4385   23.7041    2.1464 H         1 UNK         0.0705 
     81 H81        32.2683   25.4804    3.7224 H         1 UNK         0.1334 
     82 H82        29.4040   25.2667    6.8932 H         1 UNK         0.1417 
     83 H83        29.2924   22.3935    3.7032 H         1 UNK         0.1562 
     84 H84        27.9518   23.3280    7.0733 H         1 UNK         0.0748 
     85 H85        28.1169   22.0030    5.9504 H         1 UNK         0.0748 
     86 H86        27.0377   25.5915    6.3954 H         1 UNK         0.0940 
     87 H87        25.3832   25.6072    5.8628 H         1 UNK         0.0940 
     88 H88        27.8103   25.9757    4.0212 H         1 UNK         0.0703 
     89 H89        25.3492   25.1162    3.2833 H         1 UNK         0.3081 
     90 H90        25.4044   24.7897    0.8148 H         1 UNK         0.0719 
     91 H91        23.2000   26.7822    1.5717 H         1 UNK         0.0809 
     92 H92        22.9436   25.3636    0.5594 H         1 UNK         0.0809 
     93 H93        23.4413   25.1724    2.2268 H         1 UNK         0.0809 
     94 H94        25.7182   25.7990   -1.1033 H         1 UNK         0.2990 
     95 H95        24.2983   27.3427   -2.9580 H         1 UNK         0.0690 
     96 H96        25.0689   29.4831   -3.8666 H         1 UNK         0.0788 
     97 H97        25.8072   29.9294   -2.3357 H         1 UNK         0.0788 
     98 H98        24.0596   29.7860   -2.4653 H         1 UNK         0.0788 
     99 H99        26.2597   26.6344   -3.6769 H         1 UNK         0.2993 
    100 H100       28.3719   25.8436   -3.5412 H         1 UNK         0.0949 
    101 H101       29.7163   28.6000   -3.8724 H         1 UNK         0.0767 
    102 H102       30.1114   27.1518   -4.7965 H         1 UNK         0.0767 
    103 H103       28.5433   27.9145   -4.9893 H         1 UNK         0.0767 
    104 H104       29.6083   26.9863   -1.2500 H         1 UNK         0.3013 
    105 H105       24.9109   27.9724    4.0799 H         1 UNK         0.3121 
    106 H106       25.9414   30.0345    5.8107 H         1 UNK         0.0774 
    107 H107       23.6103   30.0561    3.8161 H         1 UNK         0.0815 
    108 H108       23.9135   31.2731    5.0475 H         1 UNK         0.0815 
    109 H109       23.5048   29.6350    5.5270 H         1 UNK         0.0815 
    110 H110       26.2690   29.3992    2.3479 H         1 UNK         0.2987 
    111 H111       27.2799   32.1718    1.8417 H         1 UNK         0.0949 
    112 H112       25.3778   31.3928    0.4206 H         1 UNK         0.0806 
    113 H113       26.3289   29.9918   -0.0690 H         1 UNK         0.0806 
    114 H114       26.8403   31.6081   -0.5339 H         1 UNK         0.0806 
    115 H115       28.2785   28.8552    2.1355 H         1 UNK         0.3010 
    116 H116       30.5221   28.7323    0.4981 H         1 UNK         0.0829 
    117 H117       31.2134   26.8730    2.0282 H         1 UNK         0.0813 
    118 H118       29.5003   26.7787    1.6478 H         1 UNK         0.0813 
    119 H119       30.0202   27.3981    3.2126 H         1 UNK         0.0813 
    120 H120       32.7128   29.0665    0.7369 H         1 UNK         0.3038 
    121 H121       33.4978   31.2197    2.6395 H         1 UNK         0.0769 
    122 H122       34.7346   30.2850   -0.0082 H         1 UNK         0.0811 
    123 H123       35.2953   31.6371    0.9675 H         1 UNK         0.0811 
    124 H124       33.7144   31.7075    0.2065 H         1 UNK         0.0811 
    125 H125       34.1207   27.8692    1.8238 H         1 UNK         0.3204 
    126 H126       36.7270   27.5052    2.5868 H         1 UNK         0.0748 
    127 H127       36.0820   25.0929    2.9128 H         1 UNK         0.0771 
    128 H128       34.3866   25.5504    2.8760 H         1 UNK         0.0771 
    129 H129       35.3977   25.7757    1.4515 H         1 UNK         0.0771 
    130 H130       34.1262   28.0601    4.8482 H         1 UNK         0.2980 
    131 H131       35.6053   27.1022    7.1803 H         1 UNK         0.0545 
    132 H132       36.7185   30.9143    6.5697 H         1 UNK         0.3459 
    133 H133       35.9904   29.9793    5.2848 H         1 UNK         0.3459 
    134 H134       33.0047   28.7036    7.0514 H         1 UNK         0.0616 
    135 H135       33.7175   28.0526    8.5045 H         1 UNK         0.0616 
    136 H136       31.9335   27.3807    5.2181 H         1 UNK         0.0634 
    137 H137       30.7455   27.3350    6.4991 H         1 UNK         0.0634 
@<TRIPOS>BOND
     1    1    2 1    
     2    1   72 1    
     3    1   73 1    
     4    1   74 1    
     5    2    3 2    
     6    2    4 am   BACKBONE|DICT|INTERRES
     7    4    5 1    
     8    4   75 1    
     9    5    6 1    
    10    5   35 1    
    11    5   76 1    
    12    6    7 1    
    13    6   77 1    
    14    6   78 1    
    15    7    8 1    
    16    8    9 1    
    17    8   79 1    
    18    8   80 1    
    19    9   10 ar   
    20    9   14 ar   
    21   10   11 ar   
    22   10   81 1    
    23   11   12 ar   
    24   11   71 1    
    25   12   13 ar   
    26   12   82 1    
    27   13   14 ar   
    28   13   15 1    
    29   14   83 1    
    30   15   16 1    
    31   15   84 1    
    32   15   85 1    
    33   16   17 1    
    34   17   18 1    
    35   17   86 1    
    36   17   87 1    
    37   18   19 1    
    38   18   37 1    
    39   18   88 1    
    40   19   20 am   BACKBONE|DICT|INTERRES
    41   19   89 1    
    42   20   21 2    
    43   20   22 1    
    44   22   23 1    
    45   22   24 1    
    46   22   90 1    
    47   23   91 1    
    48   23   92 1    
    49   23   93 1    
    50   24   25 am   BACKBONE|DICT|INTERRES
    51   24   94 1    
    52   25   26 2    
    53   25   27 1    
    54   27   28 1    
    55   27   29 1    
    56   27   95 1    
    57   28   96 1    
    58   28   97 1    
    59   28   98 1    
    60   29   30 am   BACKBONE|DICT|INTERRES
    61   29   99 1    
    62   30   31 2    
    63   30   32 1    
    64   32   33 1    
    65   32   34 1    
    66   32  100 1    
    67   33  101 1    
    68   33  102 1    
    69   33  103 1    
    70   34   35 am   BACKBONE|DICT|INTERRES
    71   34  104 1    
    72   35   36 2    
    73   37   38 2    
    74   37   39 am   BACKBONE|DICT|INTERRES
    75   39   40 1    
    76   39  105 1    
    77   40   41 1    
    78   40   42 1    
    79   40  106 1    
    80   41  107 1    
    81   41  108 1    
    82   41  109 1    
    83   42   43 2    
    84   42   44 am   BACKBONE|DICT|INTERRES
    85   44   45 1    
    86   44  110 1    
    87   45   46 1    
    88   45   47 1    
    89   45  111 1    
    90   46  112 1    
    91   46  113 1    
    92   46  114 1    
    93   47   48 2    
    94   47   49 am   BACKBONE|DICT|INTERRES
    95   49   50 1    
    96   49  115 1    
    97   50   51 1    
    98   50   52 1    
    99   50  116 1    
   100   51  117 1    
   101   51  118 1    
   102   51  119 1    
   103   52   53 2    
   104   52   54 am   BACKBONE|DICT|INTERRES
   105   54   55 1    
   106   54  120 1    
   107   55   56 1    
   108   55   57 1    
   109   55  121 1    
   110   56  122 1    
   111   56  123 1    
   112   56  124 1    
   113   57   58 2    
   114   57   59 am   BACKBONE|DICT|INTERRES
   115   59   60 1    
   116   59  125 1    
   117   60   61 1    
   118   60   62 1    
   119   60  126 1    
   120   61  127 1    
   121   61  128 1    
   122   61  129 1    
   123   62   63 2    
   124   62   64 am   BACKBONE|DICT|INTERRES
   125   64   65 1    
   126   64  130 1    
   127   65   66 1    
   128   65   69 1    
   129   65  131 1    
   130   66   67 am   BACKBONE|DICT|INTERRES
   131   66   68 2    
   132   67  132 1    
   133   67  133 1    
   134   69   70 1    
   135   69  134 1    
   136   69  135 1    
   137   70   71 1    
   138   71  136 1    
   139   71  137 1    
@<TRIPOS>SUBSTRUCTURE
     1 UNK         1 GROUP             0       ****    0 ROOT    
