@<TRIPOS>MOLECULE
3R136
137   139    1
SMALL
USER_CHARGES


@<TRIPOS>ATOM
      1 CA         30.5917   16.5893   -1.8088 C.3       0 UNK        -0.1979 
      2 C          29.7220   17.8016   -2.1078 C.2       0 UNK         0.4864 
      3 O          28.7906   17.7040   -2.9089 O.2       0 UNK        -0.5359 
      4 N          30.0240   18.9438   -1.4782 N.am      1 UNK        -0.4318 
      5 CA         29.2589   20.1901   -1.5781 C.3       1 UNK         0.0824 
      6 C6         30.0936   21.4131   -1.1185 C.3       12 UNK        -0.0944 
      7 S7         30.8510   21.2353    0.5383 S.3       12 UNK        -0.2672 
      8 C8         29.9531   22.4971    1.4897 C.3       12 UNK         0.0333 
      9 C9         30.6749   23.8390    1.4818 C.ar      12 UNK        -0.0807 
     10 C10        31.3713   24.2602    2.6194 C.ar      12 UNK        -0.0894 
     11 C11        32.0002   25.5078    2.6430 C.ar      12 UNK        -0.0804 
     12 C12        31.9753   26.3150    1.5047 C.ar      12 UNK        -0.0824 
     13 C13        31.2683   25.9176    0.3692 C.ar      12 UNK        -0.0762 
     14 C14        30.6154   24.6807    0.3644 C.ar      12 UNK        -0.0782 
     15 C15        31.2051   26.8309   -0.8457 C.3       12 UNK         0.0230 
     16 S16        29.6682   27.8087   -0.8909 S.3       12 UNK        -0.2608 
     17 C17        29.8988   29.0087    0.4687 C.3       12 UNK        -0.0989 
     18 CA         28.7700   28.9045    1.5253 C.3       5 UNK         0.0716 
     19 N          28.7889   27.6180    2.2216 N.am      5 UNK        -0.4135 
     20 C          27.7301   27.0681    2.8242 C.2       4 UNK         0.5031 
     21 O          26.6059   27.5765    2.8583 O.2       4 UNK        -0.5229 
     22 CA         27.9699   25.7160    3.5148 C.3       4 UNK         0.0329 
     23 CB         28.0404   25.8907    5.0406 C.3       4 UNK        -0.2001 
     24 N          26.9374   24.7295    3.1880 N.am      4 UNK        -0.4303 
     25 C          26.6720   24.2660    1.9593 C.2       3 UNK         0.5044 
     26 O          27.2720   24.6072    0.9367 O.2       3 UNK        -0.5152 
     27 CA         25.5400   23.2400    1.8554 C.3       3 UNK         0.0319 
     28 CB         24.1683   23.9418    1.8162 C.3       3 UNK        -0.2001 
     29 N          25.7363   22.4431    0.6460 N.am      3 UNK        -0.4354 
     30 C          25.1771   21.2524    0.4045 C.2       2 UNK         0.4964 
     31 O          24.4341   20.6714    1.1968 O.2       2 UNK        -0.5047 
     32 CA         25.4765   20.6003   -0.9557 C.3       2 UNK         0.0288 
     33 CB         24.5430   21.1662   -2.0392 C.3       2 UNK        -0.2113 
     34 N          26.8691   20.7297   -1.3975 N.am      2 UNK        -0.4145 
     35 C          27.9017   20.0757   -0.8454 C.2       1 UNK         0.5006 
     36 O          27.8084   19.3891    0.1763 O.2       1 UNK        -0.5103 
     37 C          28.8119   30.0808    2.5237 C.2       5 UNK         0.5055 
     38 O          29.2393   29.9226    3.6725 O.2       5 UNK        -0.5220 
     39 N          28.3629   31.2478    2.0413 N.am      6 UNK        -0.4450 
     40 CA         28.3058   32.5196    2.7659 C.3       6 UNK         0.0367 
     41 CB         27.2933   33.4409    2.0555 C.3       6 UNK        -0.1929 
     42 C          29.6940   33.1742    2.9287 C.2       6 UNK         0.5070 
     43 O          30.7155   32.4927    2.8312 O.2       6 UNK        -0.5237 
     44 N          29.7138   34.4924    3.1752 N.am      7 UNK        -0.4739 
     45 CA         30.8708   35.3290    3.5381 C.3       7 UNK         0.0276 
     46 CB         30.4062   36.7912    3.6407 C.3       7 UNK        -0.1927 
     47 C          32.1260   35.2337    2.6455 C.2       7 UNK         0.5013 
     48 O          33.2064   35.6043    3.1054 O.2       7 UNK        -0.5193 
     49 N          31.9837   34.7254    1.4132 N.am      8 UNK        -0.4253 
     50 CA         33.0943   34.3650    0.5254 C.3       8 UNK         0.0242 
     51 CB         32.5378   33.9847   -0.8563 C.3       8 UNK        -0.2000 
     52 C          33.9709   33.2262    1.0864 C.2       8 UNK         0.4948 
     53 O          35.1822   33.2361    0.8632 O.2       8 UNK        -0.5275 
     54 N          33.3485   32.2869    1.8116 N.am      9 UNK        -0.4246 
     55 CA         34.0114   31.2232    2.5700 C.3       9 UNK         0.0261 
     56 CB         33.3372   29.8791    2.2531 C.3       9 UNK        -0.1959 
     57 C          33.9409   31.4984    4.0804 C.2       9 UNK         0.5033 
     58 O          34.8929   31.1826    4.7940 O.2       9 UNK        -0.5390 
     59 N          32.8123   32.0673    4.5327 N.am      10 UNK        -0.4215 
     60 CA         32.4552   32.4280    5.9100 C.3       10 UNK         0.0240 
     61 CB         33.4300   33.4786    6.4825 C.3       10 UNK        -0.1982 
     62 C          32.2528   31.2239    6.8514 C.2       10 UNK         0.4970 
     63 O          32.2123   31.4136    8.0684 O.2       10 UNK        -0.4916 
     64 N          32.1063   30.0182    6.2884 N.am      11 UNK        -0.4279 
     65 CA         31.8155   28.7822    7.0263 C.3       11 UNK         0.1003 
     66 C          30.3240   28.6375    7.4455 C.2       11 UNK         0.5709 
     67 N          29.3750   29.2369    6.7338 N.am      11 UNK        -0.7358 
     68 O          30.0280   27.9846    8.4434 O.2       11 UNK        -0.4999 
     69 C69        32.3411   27.5329    6.2731 C.3       12 UNK        -0.0954 
     70 S70        31.6073   27.3354    4.6188 S.3       12 UNK        -0.2268 
     71 C71        32.6465   26.0238    3.9155 C.3       12 UNK         0.0203 
     72 H72        29.9847   15.7862   -1.3916 H         1 UNK         0.0888 
     73 H73        31.0569   16.2256   -2.7246 H         1 UNK         0.0888 
     74 H74        31.3828   16.8216   -1.0958 H         1 UNK         0.0888 
     75 H75        30.7761   18.9616   -0.8036 H         1 UNK         0.3017 
     76 H76        29.0363   20.3378   -2.6375 H         1 UNK         0.0873 
     77 H77        30.9085   21.5738   -1.8261 H         1 UNK         0.0745 
     78 H78        29.4888   22.3185   -1.1704 H         1 UNK         0.0745 
     79 H79        29.8375   22.1380    2.5134 H         1 UNK         0.0705 
     80 H80        28.9427   22.6025    1.0980 H         1 UNK         0.0705 
     81 H81        31.3928   23.6323    3.4998 H         1 UNK         0.1334 
     82 H82        32.4753   27.2723    1.5221 H         1 UNK         0.1417 
     83 H83        30.0516   24.3841   -0.5077 H         1 UNK         0.1562 
     84 H84        31.2635   26.2293   -1.7539 H         1 UNK         0.0748 
     85 H85        32.0653   27.5019   -0.8725 H         1 UNK         0.0748 
     86 H86        29.9181   30.0021    0.0165 H         1 UNK         0.0940 
     87 H87        30.8755   28.8771    0.9311 H         1 UNK         0.0940 
     88 H88        27.8169   28.9760    0.9957 H         1 UNK         0.0703 
     89 H89        29.6799   27.1444    2.2614 H         1 UNK         0.3081 
     90 H90        28.9241   25.3168    3.1734 H         1 UNK         0.0719 
     91 H91        28.7914   26.6321    5.3149 H         1 UNK         0.0809 
     92 H92        27.0890   26.2298    5.4520 H         1 UNK         0.0809 
     93 H93        28.3119   24.9587    5.5365 H         1 UNK         0.0809 
     94 H94        26.3645   24.4132    3.9566 H         1 UNK         0.2990 
     95 H95        25.5915   22.5813    2.7252 H         1 UNK         0.0690 
     96 H96        23.3503   23.2219    1.7865 H         1 UNK         0.0788 
     97 H97        24.0755   24.5897    0.9436 H         1 UNK         0.0788 
     98 H98        24.0177   24.5622    2.7005 H         1 UNK         0.0788 
     99 H99        26.3633   22.8601   -0.0310 H         1 UNK         0.2993 
    100 H100       25.2607   19.5340   -0.8536 H         1 UNK         0.0949 
    101 H101       23.4971   21.0632   -1.7458 H         1 UNK         0.0767 
    102 H102       24.7272   22.2260   -2.2204 H         1 UNK         0.0767 
    103 H103       24.6649   20.6367   -2.9845 H         1 UNK         0.0767 
    104 H104       27.0269   21.2780   -2.2310 H         1 UNK         0.3013 
    105 H105       28.0598   31.2791    1.0789 H         1 UNK         0.3121 
    106 H106       27.9338   32.3156    3.7721 H         1 UNK         0.0774 
    107 H107       27.6571   33.7673    1.0801 H         1 UNK         0.0815 
    108 H108       26.3401   32.9345    1.9013 H         1 UNK         0.0815 
    109 H109       27.0757   34.3328    2.6440 H         1 UNK         0.0815 
    110 H110       28.8209   34.9635    3.2038 H         1 UNK         0.2987 
    111 H111       31.1852   35.0092    4.5332 H         1 UNK         0.0949 
    112 H112       29.6165   36.9079    4.3832 H         1 UNK         0.0806 
    113 H113       31.2262   37.4448    3.9424 H         1 UNK         0.0806 
    114 H114       30.0295   37.1612    2.6863 H         1 UNK         0.0806 
    115 H115       31.0565   34.4507    1.1236 H         1 UNK         0.3010 
    116 H116       33.7303   35.2453    0.4105 H         1 UNK         0.0829 
    117 H117       31.8748   33.1201   -0.8020 H         1 UNK         0.0813 
    118 H118       33.3454   33.7332   -1.5453 H         1 UNK         0.0813 
    119 H119       31.9803   34.8094   -1.3009 H         1 UNK         0.0813 
    120 H120       32.3465   32.3835    1.9573 H         1 UNK         0.3038 
    121 H121       35.0645   31.1542    2.2894 H         1 UNK         0.0769 
    122 H122       33.3860   29.6548    1.1876 H         1 UNK         0.0811 
    123 H123       32.2884   29.8742    2.5533 H         1 UNK         0.0811 
    124 H124       33.8312   29.0626    2.7817 H         1 UNK         0.0811 
    125 H125       32.0635   32.2234    3.8563 H         1 UNK         0.3204 
    126 H126       31.4751   32.9013    5.8392 H         1 UNK         0.0748 
    127 H127       34.4198   33.0577    6.6611 H         1 UNK         0.0771 
    128 H128       33.5429   34.3252    5.8048 H         1 UNK         0.0771 
    129 H129       33.0693   33.8726    7.4333 H         1 UNK         0.0771 
    130 H130       32.1184   29.9390    5.2830 H         1 UNK         0.2980 
    131 H131       32.3781   28.8268    7.9610 H         1 UNK         0.0545 
    132 H132       29.5915   29.6891    5.8548 H         1 UNK         0.3459 
    133 H133       28.4154   29.1444    7.0236 H         1 UNK         0.3459 
    134 H134       32.1544   26.6264    6.8519 H         1 UNK         0.0616 
    135 H135       33.4244   27.6028    6.1624 H         1 UNK         0.0616 
    136 H136       33.6422   26.4155    3.7028 H         1 UNK         0.0634 
    137 H137       32.7667   25.2205    4.6440 H         1 UNK         0.0634 
@<TRIPOS>BOND
     1    1    2 1    
     2    1   72 1    
     3    1   73 1    
     4    1   74 1    
     5    2    3 2    
     6    2    4 am   BACKBONE|DICT|INTERRES
     7    4    5 1    
     8    4   75 1    
     9    5    6 1    
    10    5   35 1    
    11    5   76 1    
    12    6    7 1    
    13    6   77 1    
    14    6   78 1    
    15    7    8 1    
    16    8    9 1    
    17    8   79 1    
    18    8   80 1    
    19    9   10 ar   
    20    9   14 ar   
    21   10   11 ar   
    22   10   81 1    
    23   11   12 ar   
    24   11   71 1    
    25   12   13 ar   
    26   12   82 1    
    27   13   14 ar   
    28   13   15 1    
    29   14   83 1    
    30   15   16 1    
    31   15   84 1    
    32   15   85 1    
    33   16   17 1    
    34   17   18 1    
    35   17   86 1    
    36   17   87 1    
    37   18   19 1    
    38   18   37 1    
    39   18   88 1    
    40   19   20 am   BACKBONE|DICT|INTERRES
    41   19   89 1    
    42   20   21 2    
    43   20   22 1    
    44   22   23 1    
    45   22   24 1    
    46   22   90 1    
    47   23   91 1    
    48   23   92 1    
    49   23   93 1    
    50   24   25 am   BACKBONE|DICT|INTERRES
    51   24   94 1    
    52   25   26 2    
    53   25   27 1    
    54   27   28 1    
    55   27   29 1    
    56   27   95 1    
    57   28   96 1    
    58   28   97 1    
    59   28   98 1    
    60   29   30 am   BACKBONE|DICT|INTERRES
    61   29   99 1    
    62   30   31 2    
    63   30   32 1    
    64   32   33 1    
    65   32   34 1    
    66   32  100 1    
    67   33  101 1    
    68   33  102 1    
    69   33  103 1    
    70   34   35 am   BACKBONE|DICT|INTERRES
    71   34  104 1    
    72   35   36 2    
    73   37   38 2    
    74   37   39 am   BACKBONE|DICT|INTERRES
    75   39   40 1    
    76   39  105 1    
    77   40   41 1    
    78   40   42 1    
    79   40  106 1    
    80   41  107 1    
    81   41  108 1    
    82   41  109 1    
    83   42   43 2    
    84   42   44 am   BACKBONE|DICT|INTERRES
    85   44   45 1    
    86   44  110 1    
    87   45   46 1    
    88   45   47 1    
    89   45  111 1    
    90   46  112 1    
    91   46  113 1    
    92   46  114 1    
    93   47   48 2    
    94   47   49 am   BACKBONE|DICT|INTERRES
    95   49   50 1    
    96   49  115 1    
    97   50   51 1    
    98   50   52 1    
    99   50  116 1    
   100   51  117 1    
   101   51  118 1    
   102   51  119 1    
   103   52   53 2    
   104   52   54 am   BACKBONE|DICT|INTERRES
   105   54   55 1    
   106   54  120 1    
   107   55   56 1    
   108   55   57 1    
   109   55  121 1    
   110   56  122 1    
   111   56  123 1    
   112   56  124 1    
   113   57   58 2    
   114   57   59 am   BACKBONE|DICT|INTERRES
   115   59   60 1    
   116   59  125 1    
   117   60   61 1    
   118   60   62 1    
   119   60  126 1    
   120   61  127 1    
   121   61  128 1    
   122   61  129 1    
   123   62   63 2    
   124   62   64 am   BACKBONE|DICT|INTERRES
   125   64   65 1    
   126   64  130 1    
   127   65   66 1    
   128   65   69 1    
   129   65  131 1    
   130   66   67 am   BACKBONE|DICT|INTERRES
   131   66   68 2    
   132   67  132 1    
   133   67  133 1    
   134   69   70 1    
   135   69  134 1    
   136   69  135 1    
   137   70   71 1    
   138   71  136 1    
   139   71  137 1    
@<TRIPOS>SUBSTRUCTURE
     1 UNK         1 GROUP             0       ****    0 ROOT    
