@<TRIPOS>MOLECULE
3R136
137   139    1
SMALL
USER_CHARGES


@<TRIPOS>ATOM
      1 CA         25.6324   17.6085    1.3811 C.3       0 UNK        -0.1979 
      2 C          26.3810   18.9262    1.5243 C.2       0 UNK         0.4864 
      3 O          26.1014   19.6807    2.4571 O.2       0 UNK        -0.5359 
      4 N          27.3299   19.1881    0.6120 N.am      1 UNK        -0.4318 
      5 CA         28.1483   20.4042    0.4891 C.3       1 UNK         0.0824 
      6 C6         28.8737   20.7893    1.8104 C.3       12 UNK        -0.0944 
      7 S7         30.4385   21.6894    1.5449 S.3       12 UNK        -0.2672 
      8 C8         29.9948   23.3167    2.2240 C.3       12 UNK         0.0333 
      9 C9         31.1254   24.3240    2.0788 C.ar      12 UNK        -0.0807 
     10 C10        31.8110   24.7850    3.2057 C.ar      12 UNK        -0.0894 
     11 C11        32.8358   25.7276    3.0779 C.ar      12 UNK        -0.0804 
     12 C12        33.1728   26.2128    1.8095 C.ar      12 UNK        -0.0824 
     13 C13        32.4978   25.7538    0.6729 C.ar      12 UNK        -0.0762 
     14 C14        31.4739   24.8119    0.8170 C.ar      12 UNK        -0.0782 
     15 C15        32.9063   26.2349   -0.7144 C.3       12 UNK         0.0230 
     16 S16        32.2276   27.8733   -1.1324 S.3       12 UNK        -0.2608 
     17 C17        30.4427   27.5218   -1.3019 C.3       12 UNK        -0.0989 
     18 CA         29.5430   28.5922   -0.6392 C.3       5 UNK         0.0716 
     19 N          28.1262   28.3740   -0.9270 N.am      5 UNK        -0.4135 
     20 C          27.1862   29.3286   -0.8665 C.2       4 UNK         0.5031 
     21 O          27.4285   30.5193   -0.6704 O.2       4 UNK        -0.5229 
     22 CA         25.7222   28.8804   -1.0302 C.3       4 UNK         0.0329 
     23 CB         25.3048   28.9337   -2.5084 C.3       4 UNK        -0.2001 
     24 N          25.4652   27.5387   -0.4994 N.am      4 UNK        -0.4303 
     25 C          25.5528   27.2037    0.7963 C.2       3 UNK         0.5044 
     26 O          25.8063   28.0060    1.6939 O.2       3 UNK        -0.5152 
     27 CA         25.3828   25.7124    1.1412 C.3       3 UNK         0.0319 
     28 CB         23.9047   25.3862    1.4045 C.3       3 UNK        -0.2001 
     29 N          25.9134   24.7960    0.1236 N.am      3 UNK        -0.4354 
     30 C          27.1812   24.7767   -0.3093 C.2       2 UNK         0.4964 
     31 O          28.0527   25.5496    0.0948 O.2       2 UNK        -0.5047 
     32 CA         27.5337   23.7237   -1.3708 C.3       2 UNK         0.0288 
     33 CB         28.5454   24.2650   -2.3974 C.3       2 UNK        -0.2113 
     34 N          28.0830   22.5241   -0.7401 N.am      2 UNK        -0.4145 
     35 C          27.3545   21.5793   -0.1311 C.2       1 UNK         0.5006 
     36 O          26.1217   21.6117   -0.0802 O.2       1 UNK        -0.5103 
     37 C          29.7532   28.7014    0.8817 C.2       5 UNK         0.5055 
     38 O          30.3815   29.6613    1.3232 O.2       5 UNK        -0.5220 
     39 N          29.1754   27.7705    1.6575 N.am      6 UNK        -0.4450 
     40 CA         29.2571   27.7356    3.1248 C.3       6 UNK         0.0367 
     41 CB         28.4700   26.5292    3.6580 C.3       6 UNK        -0.1929 
     42 C          28.7650   29.0219    3.8153 C.2       6 UNK         0.5070 
     43 O          29.3229   29.4174    4.8378 O.2       6 UNK        -0.5237 
     44 N          27.7353   29.6552    3.2394 N.am      7 UNK        -0.4739 
     45 CA         27.1858   30.9345    3.6888 C.3       7 UNK         0.0276 
     46 CB         25.7849   31.1057    3.0785 C.3       7 UNK        -0.1927 
     47 C          28.0659   32.1528    3.3458 C.2       7 UNK         0.5013 
     48 O          27.8803   33.2029    3.9630 O.2       7 UNK        -0.5193 
     49 N          28.9672   32.0201    2.3629 N.am      8 UNK        -0.4253 
     50 CA         29.7846   33.1124    1.8292 C.3       8 UNK         0.0242 
     51 CB         29.6939   33.0976    0.2937 C.3       8 UNK        -0.2000 
     52 C          31.2514   33.0224    2.2745 C.2       8 UNK         0.4948 
     53 O          31.8475   34.0543    2.5880 O.2       8 UNK        -0.5275 
     54 N          31.8192   31.8104    2.2624 N.am      9 UNK        -0.4246 
     55 CA         33.2150   31.5297    2.5942 C.3       9 UNK         0.0261 
     56 CB         33.5598   30.1073    2.1200 C.3       9 UNK        -0.1959 
     57 C          33.5035   31.6770    4.0959 C.2       9 UNK         0.5033 
     58 O          32.6298   31.4242    4.9294 O.2       9 UNK        -0.5390 
     59 N          34.7548   32.0251    4.4188 N.am      10 UNK        -0.4215 
     60 CA         35.2815   32.0917    5.7834 C.3       10 UNK         0.0240 
     61 CB         36.4479   33.0978    5.8221 C.3       10 UNK        -0.1982 
     62 C          35.6876   30.6884    6.2720 C.2       10 UNK         0.4970 
     63 O          36.8746   30.4247    6.4748 O.2       10 UNK        -0.4916 
     64 N          34.6933   29.8028    6.4023 N.am      11 UNK        -0.4279 
     65 CA         34.8402   28.4089    6.8442 C.3       11 UNK         0.1003 
     66 C          35.4192   28.2828    8.2810 C.2       11 UNK         0.5709 
     67 N          36.2351   27.2685    8.5353 N.am      11 UNK        -0.7358 
     68 O          35.1013   29.0675    9.1735 O.2       11 UNK        -0.4999 
     69 C69        33.5022   27.6331    6.7359 C.3       12 UNK        -0.0954 
     70 S70        32.7816   27.6466    5.0605 S.3       12 UNK        -0.2268 
     71 C71        33.5854   26.1978    4.3148 C.3       12 UNK         0.0203 
     72 H72        25.7612   17.0043    2.2788 H         1 UNK         0.0888 
     73 H73        24.5675   17.7960    1.2460 H         1 UNK         0.0888 
     74 H74        25.9847   17.0277    0.5288 H         1 UNK         0.0888 
     75 H75        27.4754   18.5143   -0.1271 H         1 UNK         0.3017 
     76 H76        28.9113   20.1311   -0.2420 H         1 UNK         0.0873 
     77 H77        29.1364   19.8854    2.3625 H         1 UNK         0.0745 
     78 H78        28.2140   21.3527    2.4733 H         1 UNK         0.0745 
     79 H79        29.7184   23.1997    3.2732 H         1 UNK         0.0705 
     80 H80        29.1093   23.6930    1.7137 H         1 UNK         0.0705 
     81 H81        31.5468   24.4131    4.1862 H         1 UNK         0.1334 
     82 H82        33.9667   26.9397    1.7047 H         1 UNK         0.1417 
     83 H83        30.9494   24.4453   -0.0534 H         1 UNK         0.1562 
     84 H84        32.6017   25.5157   -1.4766 H         1 UNK         0.0748 
     85 H85        33.9946   26.2863   -0.7695 H         1 UNK         0.0748 
     86 H86        30.2179   26.5368   -0.8999 H         1 UNK         0.0940 
     87 H87        30.2203   27.4637   -2.3685 H         1 UNK         0.0940 
     88 H88        29.8222   29.5561   -1.0717 H         1 UNK         0.0703 
     89 H89        27.8346   27.4104   -1.0194 H         1 UNK         0.3081 
     90 H90        25.1002   29.5845   -0.4729 H         1 UNK         0.0719 
     91 H91        24.2468   28.7010   -2.6310 H         1 UNK         0.0809 
     92 H92        25.4648   29.9306   -2.9222 H         1 UNK         0.0809 
     93 H93        25.8770   28.2327   -3.1175 H         1 UNK         0.0809 
     94 H94        25.2390   26.8153   -1.1663 H         1 UNK         0.2990 
     95 H95        25.9385   25.5253    2.0614 H         1 UNK         0.0690 
     96 H96        23.4930   26.0383    2.1764 H         1 UNK         0.0788 
     97 H97        23.7806   24.3599    1.7508 H         1 UNK         0.0788 
     98 H98        23.2956   25.5154    0.5090 H         1 UNK         0.0788 
     99 H99        25.2781   24.0905   -0.2244 H         1 UNK         0.2993 
    100 H100       26.6229   23.4591   -1.9131 H         1 UNK         0.0949 
    101 H101       29.5147   24.4760   -1.9470 H         1 UNK         0.0767 
    102 H102       28.7051   23.5508   -3.2054 H         1 UNK         0.0767 
    103 H103       28.1872   25.1900   -2.8513 H         1 UNK         0.0767 
    104 H104       29.0898   22.4460   -0.7163 H         1 UNK         0.3013 
    105 H105       28.6918   26.9992    1.2059 H         1 UNK         0.3121 
    106 H106       30.3102   27.6016    3.3777 H         1 UNK         0.0774 
    107 H107       27.3955   26.6654    3.5376 H         1 UNK         0.0815 
    108 H108       28.6616   26.3841    4.7218 H         1 UNK         0.0815 
    109 H109       28.7491   25.6104    3.1487 H         1 UNK         0.0815 
    110 H110       27.2715   29.2062    2.4554 H         1 UNK         0.2987 
    111 H111       27.0850   30.9023    4.7759 H         1 UNK         0.0949 
    112 H112       25.8221   31.1252    1.9881 H         1 UNK         0.0806 
    113 H113       25.1212   30.2931    3.3750 H         1 UNK         0.0806 
    114 H114       25.3233   32.0376    3.4079 H         1 UNK         0.0806 
    115 H115       29.1104   31.1036    1.9524 H         1 UNK         0.3010 
    116 H116       29.3980   34.0745    2.1726 H         1 UNK         0.0829 
    117 H117       28.6655   33.2324   -0.0421 H         1 UNK         0.0813 
    118 H118       30.2869   33.9028   -0.1422 H         1 UNK         0.0813 
    119 H119       30.0575   32.1581   -0.1250 H         1 UNK         0.0813 
    120 H120       31.2558   31.0056    1.9873 H         1 UNK         0.3038 
    121 H121       33.8395   32.2398    2.0479 H         1 UNK         0.0769 
    122 H122       32.9201   29.3623    2.5950 H         1 UNK         0.0811 
    123 H123       34.5931   29.8476    2.3532 H         1 UNK         0.0811 
    124 H124       33.4343   30.0075    1.0416 H         1 UNK         0.0811 
    125 H125       35.4225   32.1747    3.6755 H         1 UNK         0.3204 
    126 H126       34.5030   32.4613    6.4547 H         1 UNK         0.0748 
    127 H127       37.2649   32.7999    5.1636 H         1 UNK         0.0771 
    128 H128       36.1214   34.0937    5.5215 H         1 UNK         0.0771 
    129 H129       36.8556   33.1833    6.8303 H         1 UNK         0.0771 
    130 H130       33.7540   30.1014    6.1653 H         1 UNK         0.2980 
    131 H131       35.5527   27.9427    6.1609 H         1 UNK         0.0545 
    132 H132       36.6075   27.1620    9.4660 H         1 UNK         0.3459 
    133 H133       36.4930   26.6119    7.8152 H         1 UNK         0.3459 
    134 H134       33.6287   26.5972    7.0556 H         1 UNK         0.0616 
    135 H135       32.7628   28.0656    7.4127 H         1 UNK         0.0616 
    136 H136       33.6333   25.3856    5.0416 H         1 UNK         0.0634 
    137 H137       34.6169   26.4492    4.0635 H         1 UNK         0.0634 
@<TRIPOS>BOND
     1    1    2 1    
     2    1   72 1    
     3    1   73 1    
     4    1   74 1    
     5    2    3 2    
     6    2    4 am   BACKBONE|DICT|INTERRES
     7    4    5 1    
     8    4   75 1    
     9    5    6 1    
    10    5   35 1    
    11    5   76 1    
    12    6    7 1    
    13    6   77 1    
    14    6   78 1    
    15    7    8 1    
    16    8    9 1    
    17    8   79 1    
    18    8   80 1    
    19    9   10 ar   
    20    9   14 ar   
    21   10   11 ar   
    22   10   81 1    
    23   11   12 ar   
    24   11   71 1    
    25   12   13 ar   
    26   12   82 1    
    27   13   14 ar   
    28   13   15 1    
    29   14   83 1    
    30   15   16 1    
    31   15   84 1    
    32   15   85 1    
    33   16   17 1    
    34   17   18 1    
    35   17   86 1    
    36   17   87 1    
    37   18   19 1    
    38   18   37 1    
    39   18   88 1    
    40   19   20 am   BACKBONE|DICT|INTERRES
    41   19   89 1    
    42   20   21 2    
    43   20   22 1    
    44   22   23 1    
    45   22   24 1    
    46   22   90 1    
    47   23   91 1    
    48   23   92 1    
    49   23   93 1    
    50   24   25 am   BACKBONE|DICT|INTERRES
    51   24   94 1    
    52   25   26 2    
    53   25   27 1    
    54   27   28 1    
    55   27   29 1    
    56   27   95 1    
    57   28   96 1    
    58   28   97 1    
    59   28   98 1    
    60   29   30 am   BACKBONE|DICT|INTERRES
    61   29   99 1    
    62   30   31 2    
    63   30   32 1    
    64   32   33 1    
    65   32   34 1    
    66   32  100 1    
    67   33  101 1    
    68   33  102 1    
    69   33  103 1    
    70   34   35 am   BACKBONE|DICT|INTERRES
    71   34  104 1    
    72   35   36 2    
    73   37   38 2    
    74   37   39 am   BACKBONE|DICT|INTERRES
    75   39   40 1    
    76   39  105 1    
    77   40   41 1    
    78   40   42 1    
    79   40  106 1    
    80   41  107 1    
    81   41  108 1    
    82   41  109 1    
    83   42   43 2    
    84   42   44 am   BACKBONE|DICT|INTERRES
    85   44   45 1    
    86   44  110 1    
    87   45   46 1    
    88   45   47 1    
    89   45  111 1    
    90   46  112 1    
    91   46  113 1    
    92   46  114 1    
    93   47   48 2    
    94   47   49 am   BACKBONE|DICT|INTERRES
    95   49   50 1    
    96   49  115 1    
    97   50   51 1    
    98   50   52 1    
    99   50  116 1    
   100   51  117 1    
   101   51  118 1    
   102   51  119 1    
   103   52   53 2    
   104   52   54 am   BACKBONE|DICT|INTERRES
   105   54   55 1    
   106   54  120 1    
   107   55   56 1    
   108   55   57 1    
   109   55  121 1    
   110   56  122 1    
   111   56  123 1    
   112   56  124 1    
   113   57   58 2    
   114   57   59 am   BACKBONE|DICT|INTERRES
   115   59   60 1    
   116   59  125 1    
   117   60   61 1    
   118   60   62 1    
   119   60  126 1    
   120   61  127 1    
   121   61  128 1    
   122   61  129 1    
   123   62   63 2    
   124   62   64 am   BACKBONE|DICT|INTERRES
   125   64   65 1    
   126   64  130 1    
   127   65   66 1    
   128   65   69 1    
   129   65  131 1    
   130   66   67 am   BACKBONE|DICT|INTERRES
   131   66   68 2    
   132   67  132 1    
   133   67  133 1    
   134   69   70 1    
   135   69  134 1    
   136   69  135 1    
   137   70   71 1    
   138   71  136 1    
   139   71  137 1    
@<TRIPOS>SUBSTRUCTURE
     1 UNK         1 GROUP             0       ****    0 ROOT    
