@<TRIPOS>MOLECULE
3R136
137   139    1
SMALL
USER_CHARGES


@<TRIPOS>ATOM
      1 CA         28.0449   28.6366   -1.8331 C.3       0 UNK        -0.1979 
      2 C          28.1066   27.3448   -1.0332 C.2       0 UNK         0.4864 
      3 O          27.1238   26.9856   -0.3797 O.2       0 UNK        -0.5359 
      4 N          29.2564   26.6556   -1.0838 N.am      1 UNK        -0.4318 
      5 CA         29.5667   25.3905   -0.4039 C.3       1 UNK         0.0824 
      6 C6         31.0278   24.9552   -0.7138 C.3       12 UNK        -0.0944 
      7 S7         31.5148   23.3023   -0.1066 S.3       12 UNK        -0.2672 
      8 C8         32.6029   23.7092    1.2963 C.3       12 UNK         0.0333 
      9 C9         31.8415   24.1873    2.5269 C.ar      12 UNK        -0.0807 
     10 C10        32.2351   25.3582    3.1839 C.ar      12 UNK        -0.0894 
     11 C11        31.5934   25.7622    4.3587 C.ar      12 UNK        -0.0804 
     12 C12        30.5444   24.9928    4.8693 C.ar      12 UNK        -0.0824 
     13 C13        30.1397   23.8208    4.2230 C.ar      12 UNK        -0.0762 
     14 C14        30.7925   23.4240    3.0530 C.ar      12 UNK        -0.0782 
     15 C15        29.0330   22.9568    4.8157 C.3       12 UNK         0.0230 
     16 S16        27.4354   23.1806    3.9685 S.3       12 UNK        -0.2608 
     17 C17        27.0826   24.9369    4.3087 C.3       12 UNK        -0.0989 
     18 CA         27.1692   25.7843    3.0088 C.3       5 UNK         0.0716 
     19 N          26.0783   25.5012    2.0583 N.am      5 UNK        -0.4135 
     20 C          24.7841   25.8065    2.2522 C.2       4 UNK         0.5031 
     21 O          24.3565   26.2729    3.3101 O.2       4 UNK        -0.5229 
     22 CA         23.7939   25.5998    1.0919 C.3       4 UNK         0.0329 
     23 CB         22.6597   26.6529    1.1278 C.3       4 UNK        -0.2001 
     24 N          24.4339   25.5983   -0.2290 N.am      4 UNK        -0.4303 
     25 C          23.8405   25.1214   -1.3341 C.2       3 UNK         0.5044 
     26 O          22.7415   24.5641   -1.3397 O.2       3 UNK        -0.5152 
     27 CA         24.5895   25.2958   -2.6634 C.3       3 UNK         0.0319 
     28 CB         24.7121   26.7802   -3.0489 C.3       3 UNK        -0.2001 
     29 N          25.9089   24.6700   -2.6299 N.am      3 UNK        -0.4354 
     30 C          26.1205   23.3451   -2.6153 C.2       2 UNK         0.4964 
     31 O          25.2218   22.5060   -2.6850 O.2       2 UNK        -0.5047 
     32 CA         27.5794   22.8632   -2.5229 C.3       2 UNK         0.0288 
     33 CB         28.0798   22.3904   -3.8980 C.3       2 UNK        -0.2113 
     34 N          28.5036   23.8725   -2.0014 N.am      2 UNK        -0.4145 
     35 C          28.5178   24.3078   -0.7338 C.2       1 UNK         0.5006 
     36 O          27.7247   23.9352    0.1328 O.2       1 UNK        -0.5103 
     37 C          27.3212   27.3029    3.2736 C.2       5 UNK         0.5055 
     38 O          27.6597   27.7171    4.3834 O.2       5 UNK        -0.5220 
     39 N          27.0745   28.1103    2.2341 N.am      6 UNK        -0.4450 
     40 CA         27.0642   29.5735    2.2602 C.3       6 UNK         0.0367 
     41 CB         25.8231   30.0637    1.4909 C.3       6 UNK        -0.1929 
     42 C          28.3714   30.1566    1.6932 C.2       6 UNK         0.5070 
     43 O          28.3593   31.2379    1.1052 O.2       6 UNK        -0.5237 
     44 N          29.4816   29.4259    1.8636 N.am      7 UNK        -0.4739 
     45 CA         30.8114   29.7809    1.3570 C.3       7 UNK         0.0276 
     46 CB         31.6455   28.4999    1.2321 C.3       7 UNK        -0.1927 
     47 C          31.5445   30.8475    2.1954 C.2       7 UNK         0.5013 
     48 O          32.6193   31.2878    1.7837 O.2       7 UNK        -0.5193 
     49 N          30.9578   31.2439    3.3368 N.am      8 UNK        -0.4253 
     50 CA         31.3428   32.3560    4.2140 C.3       8 UNK         0.0242 
     51 CB         30.9387   33.6991    3.5649 C.3       8 UNK        -0.2000 
     52 C          32.8194   32.3000    4.6435 C.2       8 UNK         0.4948 
     53 O          33.1617   31.4958    5.5115 O.2       8 UNK        -0.5275 
     54 N          33.6683   33.1243    4.0124 N.am      9 UNK        -0.4246 
     55 CA         35.1097   33.2561    4.2532 C.3       9 UNK         0.0261 
     56 CB         35.6690   34.3568    3.3368 C.3       9 UNK        -0.1959 
     57 C          35.9275   31.9593    4.0957 C.2       9 UNK         0.5033 
     58 O          37.0387   31.8941    4.6232 O.2       9 UNK        -0.5390 
     59 N          35.3737   30.9472    3.4103 N.am      10 UNK        -0.4215 
     60 CA         35.9260   29.5899    3.3547 C.3       10 UNK         0.0240 
     61 CB         35.1355   28.7592    2.3343 C.3       10 UNK        -0.1982 
     62 C          35.9344   28.8775    4.7226 C.2       10 UNK         0.4970 
     63 O          36.8157   28.0486    4.9530 O.2       10 UNK        -0.4916 
     64 N          34.9722   29.2134    5.5923 N.am      11 UNK        -0.4279 
     65 CA         34.8792   28.7350    6.9789 C.3       11 UNK         0.1003 
     66 C          35.2075   29.8559    8.0007 C.2       11 UNK         0.5709 
     67 N          34.8559   31.1094    7.7411 N.am      11 UNK        -0.7358 
     68 O          35.8002   29.5844    9.0422 O.2       11 UNK        -0.4999 
     69 C69        33.4891   28.1180    7.2763 C.3       12 UNK        -0.0954 
     70 S70        33.2409   26.5344    6.4107 S.3       12 UNK        -0.2268 
     71 C71        32.0589   26.9994    5.1113 C.3       12 UNK         0.0203 
     72 H72        27.6228   29.4373   -1.2276 H         1 UNK         0.0888 
     73 H73        29.0324   28.9559   -2.1654 H         1 UNK         0.0888 
     74 H74        27.4150   28.5064   -2.7121 H         1 UNK         0.0888 
     75 H75        30.0027   27.0235   -1.6565 H         1 UNK         0.3017 
     76 H76        29.5042   25.5774    0.6690 H         1 UNK         0.0873 
     77 H77        31.7246   25.6936   -0.3162 H         1 UNK         0.0745 
     78 H78        31.1969   24.9541   -1.7920 H         1 UNK         0.0745 
     79 H79        33.1637   22.8140    1.5680 H         1 UNK         0.0705 
     80 H80        33.3423   24.4454    0.9770 H         1 UNK         0.0705 
     81 H81        33.0636   25.9385    2.8013 H         1 UNK         0.1334 
     82 H82        30.0625   25.2960    5.7888 H         1 UNK         0.1417 
     83 H83        30.4932   22.5091    2.5593 H         1 UNK         0.1562 
     84 H84        28.9083   23.1672    5.8792 H         1 UNK         0.0748 
     85 H85        29.3196   21.9062    4.7495 H         1 UNK         0.0748 
     86 H86        27.7792   25.2926    5.0673 H         1 UNK         0.0940 
     87 H87        26.0974   25.0162    4.7691 H         1 UNK         0.0940 
     88 H88        28.0916   25.5030    2.5009 H         1 UNK         0.0703 
     89 H89        26.3730   25.0650    1.1903 H         1 UNK         0.3081 
     90 H90        23.3522   24.6147    1.2559 H         1 UNK         0.0719 
     91 H91        21.9096   26.4745    0.3579 H         1 UNK         0.0809 
     92 H92        23.0502   27.6612    0.9856 H         1 UNK         0.0809 
     93 H93        22.1313   26.6381    2.0819 H         1 UNK         0.0809 
     94 H94        25.3395   26.0537   -0.3071 H         1 UNK         0.2990 
     95 H95        24.0051   24.8013   -3.4427 H         1 UNK         0.0690 
     96 H96        25.2215   26.9023   -4.0048 H         1 UNK         0.0788 
     97 H97        25.2551   27.3575   -2.3015 H         1 UNK         0.0788 
     98 H98        23.7253   27.2342   -3.1491 H         1 UNK         0.0788 
     99 H99        26.7056   25.2831   -2.5516 H         1 UNK         0.2993 
    100 H100       27.5932   22.0105   -1.8401 H         1 UNK         0.0949 
    101 H101       29.0843   21.9714   -3.8324 H         1 UNK         0.0767 
    102 H102       27.4323   21.6110   -4.3026 H         1 UNK         0.0767 
    103 H103       28.1007   23.2054   -4.6228 H         1 UNK         0.0767 
    104 H104       29.1832   24.2429   -2.6496 H         1 UNK         0.3013 
    105 H105       26.8957   27.6799    1.3284 H         1 UNK         0.3121 
    106 H106       26.9797   29.9270    3.2898 H         1 UNK         0.0774 
    107 H107       25.7401   31.1507    1.5252 H         1 UNK         0.0815 
    108 H108       25.8547   29.7691    0.4416 H         1 UNK         0.0815 
    109 H109       24.9076   29.6585    1.9224 H         1 UNK         0.0815 
    110 H110       29.4034   28.5593    2.3759 H         1 UNK         0.2987 
    111 H111       30.6935   30.2011    0.3555 H         1 UNK         0.0949 
    112 H112       31.8245   28.0434    2.2033 H         1 UNK         0.0806 
    113 H113       31.1442   27.7656    0.6068 H         1 UNK         0.0806 
    114 H114       32.6122   28.7042    0.7709 H         1 UNK         0.0806 
    115 H115       30.1060   30.7667    3.5936 H         1 UNK         0.3010 
    116 H116       30.7602   32.2463    5.1301 H         1 UNK         0.0829 
    117 H117       29.8593   33.7493    3.4199 H         1 UNK         0.0813 
    118 H118       31.2134   34.5444    4.1976 H         1 UNK         0.0813 
    119 H119       31.4026   33.8459    2.5888 H         1 UNK         0.0813 
    120 H120       33.2863   33.7068    3.2813 H         1 UNK         0.3038 
    121 H121       35.2316   33.5794    5.2890 H         1 UNK         0.0769 
    122 H122       36.7355   34.5074    3.5111 H         1 UNK         0.0811 
    123 H123       35.1771   35.3129    3.5163 H         1 UNK         0.0811 
    124 H124       35.5437   34.1051    2.2828 H         1 UNK         0.0811 
    125 H125       34.4718   31.0996    2.9716 H         1 UNK         0.3204 
    126 H126       36.9600   29.6641    3.0113 H         1 UNK         0.0748 
    127 H127       35.5761   27.7689    2.2107 H         1 UNK         0.0771 
    128 H128       34.1057   28.6187    2.6588 H         1 UNK         0.0771 
    129 H129       35.1219   29.2353    1.3536 H         1 UNK         0.0771 
    130 H130       34.3145   29.9452    5.3441 H         1 UNK         0.2980 
    131 H131       35.6237   27.9545    7.1475 H         1 UNK         0.0545 
    132 H132       34.2941   31.3276    6.9225 H         1 UNK         0.3459 
    133 H133       35.0787   31.8311    8.4072 H         1 UNK         0.3459 
    134 H134       32.6910   28.8178    7.0211 H         1 UNK         0.0616 
    135 H135       33.3811   27.9108    8.3428 H         1 UNK         0.0616 
    136 H136       31.2019   27.5080    5.5561 H         1 UNK         0.0634 
    137 H137       32.5319   27.7130    4.4363 H         1 UNK         0.0634 
@<TRIPOS>BOND
     1    1    2 1    
     2    1   72 1    
     3    1   73 1    
     4    1   74 1    
     5    2    3 2    
     6    2    4 am   BACKBONE|DICT|INTERRES
     7    4    5 1    
     8    4   75 1    
     9    5    6 1    
    10    5   35 1    
    11    5   76 1    
    12    6    7 1    
    13    6   77 1    
    14    6   78 1    
    15    7    8 1    
    16    8    9 1    
    17    8   79 1    
    18    8   80 1    
    19    9   10 ar   
    20    9   14 ar   
    21   10   11 ar   
    22   10   81 1    
    23   11   12 ar   
    24   11   71 1    
    25   12   13 ar   
    26   12   82 1    
    27   13   14 ar   
    28   13   15 1    
    29   14   83 1    
    30   15   16 1    
    31   15   84 1    
    32   15   85 1    
    33   16   17 1    
    34   17   18 1    
    35   17   86 1    
    36   17   87 1    
    37   18   19 1    
    38   18   37 1    
    39   18   88 1    
    40   19   20 am   BACKBONE|DICT|INTERRES
    41   19   89 1    
    42   20   21 2    
    43   20   22 1    
    44   22   23 1    
    45   22   24 1    
    46   22   90 1    
    47   23   91 1    
    48   23   92 1    
    49   23   93 1    
    50   24   25 am   BACKBONE|DICT|INTERRES
    51   24   94 1    
    52   25   26 2    
    53   25   27 1    
    54   27   28 1    
    55   27   29 1    
    56   27   95 1    
    57   28   96 1    
    58   28   97 1    
    59   28   98 1    
    60   29   30 am   BACKBONE|DICT|INTERRES
    61   29   99 1    
    62   30   31 2    
    63   30   32 1    
    64   32   33 1    
    65   32   34 1    
    66   32  100 1    
    67   33  101 1    
    68   33  102 1    
    69   33  103 1    
    70   34   35 am   BACKBONE|DICT|INTERRES
    71   34  104 1    
    72   35   36 2    
    73   37   38 2    
    74   37   39 am   BACKBONE|DICT|INTERRES
    75   39   40 1    
    76   39  105 1    
    77   40   41 1    
    78   40   42 1    
    79   40  106 1    
    80   41  107 1    
    81   41  108 1    
    82   41  109 1    
    83   42   43 2    
    84   42   44 am   BACKBONE|DICT|INTERRES
    85   44   45 1    
    86   44  110 1    
    87   45   46 1    
    88   45   47 1    
    89   45  111 1    
    90   46  112 1    
    91   46  113 1    
    92   46  114 1    
    93   47   48 2    
    94   47   49 am   BACKBONE|DICT|INTERRES
    95   49   50 1    
    96   49  115 1    
    97   50   51 1    
    98   50   52 1    
    99   50  116 1    
   100   51  117 1    
   101   51  118 1    
   102   51  119 1    
   103   52   53 2    
   104   52   54 am   BACKBONE|DICT|INTERRES
   105   54   55 1    
   106   54  120 1    
   107   55   56 1    
   108   55   57 1    
   109   55  121 1    
   110   56  122 1    
   111   56  123 1    
   112   56  124 1    
   113   57   58 2    
   114   57   59 am   BACKBONE|DICT|INTERRES
   115   59   60 1    
   116   59  125 1    
   117   60   61 1    
   118   60   62 1    
   119   60  126 1    
   120   61  127 1    
   121   61  128 1    
   122   61  129 1    
   123   62   63 2    
   124   62   64 am   BACKBONE|DICT|INTERRES
   125   64   65 1    
   126   64  130 1    
   127   65   66 1    
   128   65   69 1    
   129   65  131 1    
   130   66   67 am   BACKBONE|DICT|INTERRES
   131   66   68 2    
   132   67  132 1    
   133   67  133 1    
   134   69   70 1    
   135   69  134 1    
   136   69  135 1    
   137   70   71 1    
   138   71  136 1    
   139   71  137 1    
@<TRIPOS>SUBSTRUCTURE
     1 UNK         1 GROUP             0       ****    0 ROOT    
