@<TRIPOS>MOLECULE
3R136
137   139    1
SMALL
USER_CHARGES


@<TRIPOS>ATOM
      1 CA         27.4065   22.9977   -2.8435 C.3       0 UNK        -0.1979 
      2 C          27.7453   23.2294   -1.3791 C.2       0 UNK         0.4864 
      3 O          27.3139   24.2294   -0.8097 O.2       0 UNK        -0.5359 
      4 N          28.4907   22.2987   -0.7661 N.am      1 UNK        -0.4318 
      5 CA         29.0403   22.3391    0.6014 C.3       1 UNK         0.0824 
      6 C6         29.8552   21.0522    0.8947 C.3       12 UNK        -0.0944 
      7 S7         31.3446   20.9343   -0.1564 S.3       12 UNK        -0.2672 
      8 C8         32.6846   21.2746    1.0344 C.3       12 UNK         0.0333 
      9 C9         32.5256   22.6354    1.6974 C.ar      12 UNK        -0.0807 
     10 C10        32.0349   22.7272    3.0031 C.ar      12 UNK        -0.0894 
     11 C11        31.8279   23.9730    3.6002 C.ar      12 UNK        -0.0804 
     12 C12        32.1287   25.1352    2.8848 C.ar      12 UNK        -0.0824 
     13 C13        32.6486   25.0562    1.5894 C.ar      12 UNK        -0.0762 
     14 C14        32.8486   23.8034    1.0011 C.ar      12 UNK        -0.0782 
     15 C15        32.9846   26.3249    0.8239 C.3       12 UNK         0.0230 
     16 S16        31.8082   26.5939   -0.5366 S.3       12 UNK        -0.2608 
     17 C17        31.9875   28.3926   -0.8021 C.3       12 UNK        -0.0989 
     18 CA         30.7870   29.2109   -0.2653 C.3       5 UNK         0.0716 
     19 N          29.5200   28.7504   -0.8363 N.am      5 UNK        -0.4135 
     20 C          28.3169   29.3050   -0.6487 C.2       4 UNK         0.5031 
     21 O          28.1277   30.3195    0.0238 O.2       4 UNK        -0.5229 
     22 CA         27.1083   28.5746   -1.2615 C.3       4 UNK         0.0329 
     23 CB         27.4850   27.5439   -2.3511 C.3       4 UNK        -0.2001 
     24 N          26.2764   27.9340   -0.2358 N.am      4 UNK        -0.4303 
     25 C          26.6750   27.0784    0.7194 C.2       3 UNK         0.5044 
     26 O          27.8514   26.7710    0.9208 O.2       3 UNK        -0.5152 
     27 CA         25.5866   26.4549    1.6065 C.3       3 UNK         0.0319 
     28 CB         24.1389   26.8128    1.1977 C.3       3 UNK        -0.2001 
     29 N          25.7724   25.0052    1.6044 N.am      3 UNK        -0.4354 
     30 C          25.3467   24.1693    2.5614 C.2       2 UNK         0.4964 
     31 O          24.7391   24.5409    3.5666 O.2       2 UNK        -0.5047 
     32 CA         25.6151   22.6613    2.3783 C.3       2 UNK         0.0288 
     33 CB         24.3477   21.9493    1.8762 C.3       2 UNK        -0.2113 
     34 N          26.7193   22.3620    1.4649 N.am      2 UNK        -0.4145 
     35 C          28.0131   22.5892    1.7317 C.2       1 UNK         0.5006 
     36 O          28.4127   22.9827    2.8285 O.2       1 UNK        -0.5103 
     37 C          30.7851   29.2838    1.2776 C.2       5 UNK         0.5055 
     38 O          31.4612   30.1527    1.8259 O.2       5 UNK        -0.5220 
     39 N          30.0098   28.4205    1.9531 N.am      6 UNK        -0.4450 
     40 CA         29.8426   28.4390    3.4091 C.3       6 UNK         0.0367 
     41 CB         29.1129   27.1641    3.8634 C.3       6 UNK        -0.1929 
     42 C          29.0852   29.6824    3.9076 C.2       6 UNK         0.5070 
     43 O          29.3133   30.1075    5.0395 O.2       6 UNK        -0.5237 
     44 N          28.1996   30.2313    3.0647 N.am      7 UNK        -0.4739 
     45 CA         27.4287   31.4418    3.3421 C.3       7 UNK         0.0276 
     46 CB         26.0287   31.3050    2.7202 C.3       7 UNK        -0.1927 
     47 C          28.1423   32.6926    2.8085 C.2       7 UNK         0.5013 
     48 O          28.1611   33.7133    3.4967 O.2       7 UNK        -0.5193 
     49 N          28.7045   32.5988    1.5941 N.am      8 UNK        -0.4253 
     50 CA         29.4027   33.6928    0.9134 C.3       8 UNK         0.0242 
     51 CB         29.5774   33.3427   -0.5729 C.3       8 UNK        -0.2000 
     52 C          30.7583   34.0466    1.5484 C.2       8 UNK         0.4948 
     53 O          31.1294   35.2215    1.5466 O.2       8 UNK        -0.5275 
     54 N          31.4661   33.0391    2.0715 N.am      9 UNK        -0.4246 
     55 CA         32.7303   33.1735    2.7857 C.3       9 UNK         0.0261 
     56 CB         33.8787   32.6171    1.9173 C.3       9 UNK        -0.1959 
     57 C          32.5672   32.4845    4.1472 C.2       9 UNK         0.5033 
     58 O          31.9186   33.0550    5.0258 O.2       9 UNK        -0.5390 
     59 N          33.1430   31.2888    4.3080 N.am      10 UNK        -0.4215 
     60 CA         33.0854   30.4667    5.5119 C.3       10 UNK         0.0240 
     61 CB         34.0106   31.0477    6.6012 C.3       10 UNK        -0.1982 
     62 C          33.5006   29.0354    5.1539 C.2       10 UNK         0.4970 
     63 O          34.1096   28.8159    4.1036 O.2       10 UNK        -0.4916 
     64 N          33.1845   28.0972    6.0527 N.am      11 UNK        -0.4279 
     65 CA         33.6111   26.6903    5.9872 C.3       11 UNK         0.1003 
     66 C          35.0977   26.4563    6.3977 C.2       11 UNK         0.5709 
     67 N          35.7700   27.4115    7.0307 N.am      11 UNK        -0.7358 
     68 O          35.6614   25.4012    6.1200 O.2       11 UNK        -0.4999 
     69 C69        32.6218   25.7989    6.7861 C.3       12 UNK        -0.0954 
     70 S70        32.5825   24.0522    6.2580 S.3       12 UNK        -0.2268 
     71 C71        31.2587   24.0490    5.0084 C.3       12 UNK         0.0203 
     72 H72        27.8465   22.0763   -3.2245 H         1 UNK         0.0888 
     73 H73        26.3263   22.9387   -2.9736 H         1 UNK         0.0888 
     74 H74        27.7773   23.8259   -3.4468 H         1 UNK         0.0888 
     75 H75        28.7994   21.5036   -1.3076 H         1 UNK         0.3017 
     76 H76        29.7212   23.1927    0.6365 H         1 UNK         0.0873 
     77 H77        30.1541   20.9964    1.9422 H         1 UNK         0.0745 
     78 H78        29.2410   20.1665    0.7219 H         1 UNK         0.0745 
     79 H79        33.6418   21.2325    0.5127 H         1 UNK         0.0705 
     80 H80        32.7099   20.4806    1.7824 H         1 UNK         0.0705 
     81 H81        31.7914   21.8274    3.5515 H         1 UNK         0.1334 
     82 H82        31.9574   26.1025    3.3354 H         1 UNK         0.1417 
     83 H83        33.2295   23.7393   -0.0094 H         1 UNK         0.1562 
     84 H84        33.9963   26.2584    0.4211 H         1 UNK         0.0748 
     85 H85        32.9763   27.1833    1.4981 H         1 UNK         0.0748 
     86 H86        32.0834   28.5575   -1.8765 H         1 UNK         0.0940 
     87 H87        32.9266   28.7498   -0.3739 H         1 UNK         0.0940 
     88 H88        30.9208   30.2364   -0.6125 H         1 UNK         0.0703 
     89 H89        29.5645   27.8772   -1.3415 H         1 UNK         0.3081 
     90 H90        26.4943   29.3448   -1.7304 H         1 UNK         0.0719 
     91 H91        28.0432   26.6981   -1.9468 H         1 UNK         0.0809 
     92 H92        26.5917   27.1401   -2.8277 H         1 UNK         0.0809 
     93 H93        28.0868   27.9992   -3.1390 H         1 UNK         0.0809 
     94 H94        25.2899   28.1445   -0.2869 H         1 UNK         0.2990 
     95 H95        25.7628   26.8293    2.6168 H         1 UNK         0.0690 
     96 H96        23.4150   26.3637    1.8778 H         1 UNK         0.0788 
     97 H97        23.9027   26.4619    0.1921 H         1 UNK         0.0788 
     98 H98        23.9686   27.8897    1.2317 H         1 UNK         0.0788 
     99 H99        26.3261   24.6454    0.8281 H         1 UNK         0.2993 
    100 H100       25.8689   22.2572    3.3609 H         1 UNK         0.0949 
    101 H101       24.0499   22.3048    0.8889 H         1 UNK         0.0767 
    102 H102       24.4950   20.8707    1.8164 H         1 UNK         0.0767 
    103 H103       23.5088   22.1229    2.5518 H         1 UNK         0.0767 
    104 H104       26.4746   22.0532    0.5356 H         1 UNK         0.3013 
    105 H105       29.4431   27.7497    1.4375 H         1 UNK         0.3121 
    106 H106       30.8375   28.4454    3.8576 H         1 UNK         0.0774 
    107 H107       29.1750   27.0481    4.9460 H         1 UNK         0.0815 
    108 H108       28.0547   27.1902    3.6032 H         1 UNK         0.0815 
    109 H109       29.5349   26.2685    3.4090 H         1 UNK         0.0815 
    110 H110       28.1151   29.8460    2.1320 H         1 UNK         0.2987 
    111 H111       27.3068   31.5620    4.4212 H         1 UNK         0.0949 
    112 H112       26.0725   31.1803    1.6375 H         1 UNK         0.0806 
    113 H113       25.4947   30.4491    3.1333 H         1 UNK         0.0806 
    114 H114       25.4253   32.1911    2.9219 H         1 UNK         0.0806 
    115 H115       28.5811   31.7363    1.0667 H         1 UNK         0.3010 
    116 H116       28.7700   34.5809    0.9776 H         1 UNK         0.0829 
    117 H117       28.6175   33.1422   -1.0494 H         1 UNK         0.0813 
    118 H118       30.0435   34.1665   -1.1152 H         1 UNK         0.0813 
    119 H119       30.2083   32.4650   -0.7093 H         1 UNK         0.0813 
    120 H120       31.0973   32.0934    2.0298 H         1 UNK         0.3038 
    121 H121       32.9445   34.2237    2.9951 H         1 UNK         0.0769 
    122 H122       33.7065   31.5857    1.6086 H         1 UNK         0.0811 
    123 H123       34.8293   32.6533    2.4512 H         1 UNK         0.0811 
    124 H124       33.9992   33.2108    1.0111 H         1 UNK         0.0811 
    125 H125       33.5961   30.8379    3.5213 H         1 UNK         0.3204 
    126 H126       32.0544   30.4465    5.8720 H         1 UNK         0.0748 
    127 H127       33.9779   30.4486    7.5117 H         1 UNK         0.0771 
    128 H128       35.0488   31.0836    6.2681 H         1 UNK         0.0771 
    129 H129       33.7161   32.0597    6.8792 H         1 UNK         0.0771 
    130 H130       32.6937   28.3695    6.8919 H         1 UNK         0.2980 
    131 H131       33.5539   26.3934    4.9404 H         1 UNK         0.0545 
    132 H132       35.3292   28.2856    7.2634 H         1 UNK         0.3459 
    133 H133       36.7327   27.2495    7.2813 H         1 UNK         0.3459 
    134 H134       31.6076   26.1933    6.7076 H         1 UNK         0.0616 
    135 H135       32.8567   25.8293    7.8516 H         1 UNK         0.0616 
    136 H136       30.6202   24.9252    5.1148 H         1 UNK         0.0634 
    137 H137       30.6119   23.1891    5.1896 H         1 UNK         0.0634 
@<TRIPOS>BOND
     1    1    2 1    
     2    1   72 1    
     3    1   73 1    
     4    1   74 1    
     5    2    3 2    
     6    2    4 am   BACKBONE|DICT|INTERRES
     7    4    5 1    
     8    4   75 1    
     9    5    6 1    
    10    5   35 1    
    11    5   76 1    
    12    6    7 1    
    13    6   77 1    
    14    6   78 1    
    15    7    8 1    
    16    8    9 1    
    17    8   79 1    
    18    8   80 1    
    19    9   10 ar   
    20    9   14 ar   
    21   10   11 ar   
    22   10   81 1    
    23   11   12 ar   
    24   11   71 1    
    25   12   13 ar   
    26   12   82 1    
    27   13   14 ar   
    28   13   15 1    
    29   14   83 1    
    30   15   16 1    
    31   15   84 1    
    32   15   85 1    
    33   16   17 1    
    34   17   18 1    
    35   17   86 1    
    36   17   87 1    
    37   18   19 1    
    38   18   37 1    
    39   18   88 1    
    40   19   20 am   BACKBONE|DICT|INTERRES
    41   19   89 1    
    42   20   21 2    
    43   20   22 1    
    44   22   23 1    
    45   22   24 1    
    46   22   90 1    
    47   23   91 1    
    48   23   92 1    
    49   23   93 1    
    50   24   25 am   BACKBONE|DICT|INTERRES
    51   24   94 1    
    52   25   26 2    
    53   25   27 1    
    54   27   28 1    
    55   27   29 1    
    56   27   95 1    
    57   28   96 1    
    58   28   97 1    
    59   28   98 1    
    60   29   30 am   BACKBONE|DICT|INTERRES
    61   29   99 1    
    62   30   31 2    
    63   30   32 1    
    64   32   33 1    
    65   32   34 1    
    66   32  100 1    
    67   33  101 1    
    68   33  102 1    
    69   33  103 1    
    70   34   35 am   BACKBONE|DICT|INTERRES
    71   34  104 1    
    72   35   36 2    
    73   37   38 2    
    74   37   39 am   BACKBONE|DICT|INTERRES
    75   39   40 1    
    76   39  105 1    
    77   40   41 1    
    78   40   42 1    
    79   40  106 1    
    80   41  107 1    
    81   41  108 1    
    82   41  109 1    
    83   42   43 2    
    84   42   44 am   BACKBONE|DICT|INTERRES
    85   44   45 1    
    86   44  110 1    
    87   45   46 1    
    88   45   47 1    
    89   45  111 1    
    90   46  112 1    
    91   46  113 1    
    92   46  114 1    
    93   47   48 2    
    94   47   49 am   BACKBONE|DICT|INTERRES
    95   49   50 1    
    96   49  115 1    
    97   50   51 1    
    98   50   52 1    
    99   50  116 1    
   100   51  117 1    
   101   51  118 1    
   102   51  119 1    
   103   52   53 2    
   104   52   54 am   BACKBONE|DICT|INTERRES
   105   54   55 1    
   106   54  120 1    
   107   55   56 1    
   108   55   57 1    
   109   55  121 1    
   110   56  122 1    
   111   56  123 1    
   112   56  124 1    
   113   57   58 2    
   114   57   59 am   BACKBONE|DICT|INTERRES
   115   59   60 1    
   116   59  125 1    
   117   60   61 1    
   118   60   62 1    
   119   60  126 1    
   120   61  127 1    
   121   61  128 1    
   122   61  129 1    
   123   62   63 2    
   124   62   64 am   BACKBONE|DICT|INTERRES
   125   64   65 1    
   126   64  130 1    
   127   65   66 1    
   128   65   69 1    
   129   65  131 1    
   130   66   67 am   BACKBONE|DICT|INTERRES
   131   66   68 2    
   132   67  132 1    
   133   67  133 1    
   134   69   70 1    
   135   69  134 1    
   136   69  135 1    
   137   70   71 1    
   138   71  136 1    
   139   71  137 1    
@<TRIPOS>SUBSTRUCTURE
     1 UNK         1 GROUP             0       ****    0 ROOT    
