@<TRIPOS>MOLECULE
3R136
137   139    1
SMALL
USER_CHARGES


@<TRIPOS>ATOM
      1 CA         24.7621   22.5549    4.1389 C.3       0 UNK        -0.1979 
      2 C          25.8426   23.0786    3.2063 C.2       0 UNK         0.4864 
      3 O          25.5268   23.6096    2.1423 O.2       0 UNK        -0.5359 
      4 N          27.1178   22.9574    3.5995 N.am      1 UNK        -0.4318 
      5 CA         28.2920   23.3716    2.8176 C.3       1 UNK         0.0824 
      6 C6         29.6023   22.9475    3.5311 C.3       12 UNK        -0.0944 
      7 S7         30.9856   22.6897    2.3749 S.3       12 UNK        -0.2672 
      8 C8         31.9539   24.2074    2.6663 C.3       12 UNK         0.0333 
      9 C9         32.7855   24.6680    1.4740 C.ar      12 UNK        -0.0807 
     10 C10        33.9536   25.3984    1.7017 C.ar      12 UNK        -0.0894 
     11 C11        34.6710   25.9548    0.6404 C.ar      12 UNK        -0.0804 
     12 C12        34.2268   25.7475   -0.6697 C.ar      12 UNK        -0.0824 
     13 C13        33.0722   24.9986   -0.9204 C.ar      12 UNK        -0.0762 
     14 C14        32.3636   24.4573    0.1575 C.ar      12 UNK        -0.0782 
     15 C15        32.5933   24.7963   -2.3572 C.3       12 UNK         0.0230 
     16 S16        30.7790   24.8948   -2.5543 S.3       12 UNK        -0.2608 
     17 C17        30.4338   26.5139   -1.7882 C.3       12 UNK        -0.0989 
     18 CA         28.9860   27.0051   -2.0501 C.3       5 UNK         0.0716 
     19 N          27.9823   26.0792   -1.5179 N.am      5 UNK        -0.4135 
     20 C          27.0523   25.4532   -2.2501 C.2       4 UNK         0.5031 
     21 O          26.9406   25.5617   -3.4729 O.2       4 UNK        -0.5229 
     22 CA         26.0697   24.5446   -1.4921 C.3       4 UNK         0.0329 
     23 CB         26.7284   23.1974   -1.1521 C.3       4 UNK        -0.2001 
     24 N          25.5500   25.1569   -0.2691 N.am      4 UNK        -0.4303 
     25 C          24.7566   26.2377   -0.2207 C.2       3 UNK         0.5044 
     26 O          24.3238   26.8194   -1.2160 O.2       3 UNK        -0.5152 
     27 CA         24.3775   26.7561    1.1757 C.3       3 UNK         0.0319 
     28 CB         23.1332   26.0293    1.7128 C.3       3 UNK        -0.2001 
     29 N          25.4899   26.5972    2.1155 N.am      3 UNK        -0.4354 
     30 C          26.4430   27.5209    2.3077 C.2       2 UNK         0.4964 
     31 O          26.4030   28.6439    1.8088 O.2       2 UNK        -0.5047 
     32 CA         27.6329   27.1565    3.2187 C.3       2 UNK         0.0288 
     33 CB         27.4750   27.8240    4.5959 C.3       2 UNK        -0.2113 
     34 N          27.8284   25.7148    3.4013 N.am      2 UNK        -0.4145 
     35 C          28.2751   24.8768    2.4527 C.2       1 UNK         0.5006 
     36 O          28.5961   25.2404    1.3189 O.2       1 UNK        -0.5103 
     37 C          28.6980   28.4197   -1.5032 C.2       5 UNK         0.5055 
     38 O          27.5331   28.8181   -1.4357 O.2       5 UNK        -0.5220 
     39 N          29.7510   29.1791   -1.1691 N.am      6 UNK        -0.4450 
     40 CA         29.6661   30.5327   -0.6244 C.3       6 UNK         0.0367 
     41 CB         31.0368   31.2168   -0.7635 C.3       6 UNK        -0.1929 
     42 C          29.2291   30.5195    0.8474 C.2       6 UNK         0.5070 
     43 O          29.6449   29.6413    1.6053 O.2       6 UNK        -0.5237 
     44 N          28.4643   31.5456    1.2386 N.am      7 UNK        -0.4739 
     45 CA         27.9323   31.7392    2.5927 C.3       7 UNK         0.0276 
     46 CB         26.7313   32.6978    2.5176 C.3       7 UNK        -0.1927 
     47 C          28.9685   32.2330    3.6225 C.2       7 UNK         0.5013 
     48 O          28.6008   32.4755    4.7735 O.2       7 UNK        -0.5193 
     49 N          30.2351   32.3833    3.2112 N.am      8 UNK        -0.4253 
     50 CA         31.3725   32.8350    4.0162 C.3       8 UNK         0.0242 
     51 CB         32.5107   33.2519    3.0653 C.3       8 UNK        -0.2000 
     52 C          31.8260   31.7832    5.0494 C.2       8 UNK         0.4948 
     53 O          32.9445   31.2725    4.9609 O.2       8 UNK        -0.5275 
     54 N          30.9312   31.4632    5.9958 N.am      9 UNK        -0.4246 
     55 CA         31.1133   30.5883    7.1630 C.3       9 UNK         0.0261 
     56 CB         31.9958   31.2979    8.2117 C.3       9 UNK        -0.1959 
     57 C          31.6321   29.1752    6.8259 C.2       9 UNK         0.5033 
     58 O          32.3903   28.6033    7.6120 O.2       9 UNK        -0.5390 
     59 N          31.2553   28.6557    5.6456 N.am      10 UNK        -0.4215 
     60 CA         31.7243   27.3944    5.0521 C.3       10 UNK         0.0240 
     61 CB         31.1420   26.1879    5.8233 C.3       10 UNK        -0.1982 
     62 C          33.2631   27.3252    4.9153 C.2       10 UNK         0.4970 
     63 O          33.8405   26.2513    5.0897 O.2       10 UNK        -0.4916 
     64 N          33.8952   28.4773    4.6441 N.am      11 UNK        -0.4279 
     65 CA         35.3521   28.6929    4.6242 C.3       11 UNK         0.1003 
     66 C          36.0449   28.5589    6.0172 C.2       11 UNK         0.5709 
     67 N          35.3224   28.5144    7.1315 N.am      11 UNK        -0.7358 
     68 O          37.2710   28.5315    6.0993 O.2       11 UNK        -0.4999 
     69 C69        36.0900   27.8955    3.5068 C.3       12 UNK        -0.0954 
     70 S70        35.5256   28.3207    1.8230 S.3       12 UNK        -0.2268 
     71 C71        35.9158   26.7897    0.9107 C.3       12 UNK         0.0203 
     72 H72        24.1821   21.7798    3.6388 H         1 UNK         0.0888 
     73 H73        25.1802   22.1314    5.0518 H         1 UNK         0.0888 
     74 H74        24.0843   23.3615    4.4167 H         1 UNK         0.0888 
     75 H75        27.3147   22.5146    4.4861 H         1 UNK         0.3017 
     76 H76        28.2255   22.8225    1.8758 H         1 UNK         0.0873 
     77 H77        29.4575   21.9890    4.0324 H         1 UNK         0.0745 
     78 H78        29.8780   23.6474    4.3217 H         1 UNK         0.0745 
     79 H79        31.2777   25.0248    2.9170 H         1 UNK         0.0705 
     80 H80        32.5926   24.0468    3.5364 H         1 UNK         0.0705 
     81 H81        34.2909   25.5666    2.7128 H         1 UNK         0.1334 
     82 H82        34.7771   26.1769   -1.4961 H         1 UNK         0.1417 
     83 H83        31.4549   23.9038   -0.0326 H         1 UNK         0.1562 
     84 H84        32.9315   23.8194   -2.7048 H         1 UNK         0.0748 
     85 H85        33.0494   25.5349   -3.0183 H         1 UNK         0.0748 
     86 H86        31.1654   27.2147   -2.1943 H         1 UNK         0.0940 
     87 H87        30.6179   26.4455   -0.7141 H         1 UNK         0.0940 
     88 H88        28.8712   27.0944   -3.1322 H         1 UNK         0.0703 
     89 H89        28.0110   25.9185   -0.5160 H         1 UNK         0.3081 
     90 H90        25.2199   24.3501   -2.1498 H         1 UNK         0.0719 
     91 H91        27.5909   23.3231   -0.4968 H         1 UNK         0.0809 
     92 H92        26.0269   22.5255   -0.6569 H         1 UNK         0.0809 
     93 H93        27.0776   22.6961   -2.0557 H         1 UNK         0.0809 
     94 H94        25.7680   24.6844    0.6041 H         1 UNK         0.2990 
     95 H95        24.1252   27.8147    1.0811 H         1 UNK         0.0690 
     96 H96        22.8472   26.4071    2.6945 H         1 UNK         0.0788 
     97 H97        23.2908   24.9542    1.8002 H         1 UNK         0.0788 
     98 H98        22.2816   26.1781    1.0477 H         1 UNK         0.0788 
     99 H99        25.5998   25.6786    2.5264 H         1 UNK         0.2993 
    100 H100       28.5312   27.5572    2.7446 H         1 UNK         0.0949 
    101 H101       27.3363   28.9011    4.4960 H         1 UNK         0.0767 
    102 H102       26.6112   27.4348    5.1362 H         1 UNK         0.0767 
    103 H103       28.3565   27.6745    5.2172 H         1 UNK         0.0767 
    104 H104       27.5611   25.3291    4.2953 H         1 UNK         0.3013 
    105 H105       30.6747   28.7764   -1.2130 H         1 UNK         0.3121 
    106 H106       28.9344   31.0946   -1.2096 H         1 UNK         0.0774 
    107 H107       31.0000   32.2457   -0.4031 H         1 UNK         0.0815 
    108 H108       31.8080   30.6988   -0.1912 H         1 UNK         0.0815 
    109 H109       31.3588   31.2534   -1.8044 H         1 UNK         0.0815 
    110 H110       28.1977   32.2388    0.5534 H         1 UNK         0.2987 
    111 H111       27.5711   30.7751    2.9548 H         1 UNK         0.0949 
    112 H112       26.2641   32.8221    3.4957 H         1 UNK         0.0806 
    113 H113       27.0258   33.6883    2.1688 H         1 UNK         0.0806 
    114 H114       25.9629   32.3168    1.8445 H         1 UNK         0.0806 
    115 H115       30.4390   32.1192    2.2591 H         1 UNK         0.3010 
    116 H116       31.0649   33.7213    4.5755 H         1 UNK         0.0829 
    117 H117       32.1952   34.0494    2.3923 H         1 UNK         0.0813 
    118 H118       33.3702   33.6244    3.6245 H         1 UNK         0.0813 
    119 H119       32.8563   32.4150    2.4566 H         1 UNK         0.0813 
    120 H120       30.0113   31.8896    5.9015 H         1 UNK         0.3038 
    121 H121       30.1234   30.4490    7.5999 H         1 UNK         0.0769 
    122 H122       32.0427   30.7269    9.1400 H         1 UNK         0.0811 
    123 H123       31.6025   32.2833    8.4610 H         1 UNK         0.0811 
    124 H124       33.0188   31.4250    7.8549 H         1 UNK         0.0811 
    125 H125       30.6552   29.2207    5.0612 H         1 UNK         0.3204 
    126 H126       31.3295   27.3633    4.0352 H         1 UNK         0.0748 
    127 H127       31.4346   25.2432    5.3672 H         1 UNK         0.0771 
    128 H128       31.4924   26.1626    6.8555 H         1 UNK         0.0771 
    129 H129       30.0537   26.2101    5.8418 H         1 UNK         0.0771 
    130 H130       33.3509   29.3321    4.5887 H         1 UNK         0.2980 
    131 H131       35.4662   29.7499    4.3818 H         1 UNK         0.0545 
    132 H132       34.3080   28.5359    7.1091 H         1 UNK         0.3459 
    133 H133       35.7975   28.4409    8.0164 H         1 UNK         0.3459 
    134 H134       37.1609   28.1030    3.5321 H         1 UNK         0.0616 
    135 H135       35.9919   26.8231    3.6750 H         1 UNK         0.0616 
    136 H136       36.3975   27.0686   -0.0276 H         1 UNK         0.0634 
    137 H137       36.6467   26.1933    1.4584 H         1 UNK         0.0634 
@<TRIPOS>BOND
     1    1    2 1    
     2    1   72 1    
     3    1   73 1    
     4    1   74 1    
     5    2    3 2    
     6    2    4 am   BACKBONE|DICT|INTERRES
     7    4    5 1    
     8    4   75 1    
     9    5    6 1    
    10    5   35 1    
    11    5   76 1    
    12    6    7 1    
    13    6   77 1    
    14    6   78 1    
    15    7    8 1    
    16    8    9 1    
    17    8   79 1    
    18    8   80 1    
    19    9   10 ar   
    20    9   14 ar   
    21   10   11 ar   
    22   10   81 1    
    23   11   12 ar   
    24   11   71 1    
    25   12   13 ar   
    26   12   82 1    
    27   13   14 ar   
    28   13   15 1    
    29   14   83 1    
    30   15   16 1    
    31   15   84 1    
    32   15   85 1    
    33   16   17 1    
    34   17   18 1    
    35   17   86 1    
    36   17   87 1    
    37   18   19 1    
    38   18   37 1    
    39   18   88 1    
    40   19   20 am   BACKBONE|DICT|INTERRES
    41   19   89 1    
    42   20   21 2    
    43   20   22 1    
    44   22   23 1    
    45   22   24 1    
    46   22   90 1    
    47   23   91 1    
    48   23   92 1    
    49   23   93 1    
    50   24   25 am   BACKBONE|DICT|INTERRES
    51   24   94 1    
    52   25   26 2    
    53   25   27 1    
    54   27   28 1    
    55   27   29 1    
    56   27   95 1    
    57   28   96 1    
    58   28   97 1    
    59   28   98 1    
    60   29   30 am   BACKBONE|DICT|INTERRES
    61   29   99 1    
    62   30   31 2    
    63   30   32 1    
    64   32   33 1    
    65   32   34 1    
    66   32  100 1    
    67   33  101 1    
    68   33  102 1    
    69   33  103 1    
    70   34   35 am   BACKBONE|DICT|INTERRES
    71   34  104 1    
    72   35   36 2    
    73   37   38 2    
    74   37   39 am   BACKBONE|DICT|INTERRES
    75   39   40 1    
    76   39  105 1    
    77   40   41 1    
    78   40   42 1    
    79   40  106 1    
    80   41  107 1    
    81   41  108 1    
    82   41  109 1    
    83   42   43 2    
    84   42   44 am   BACKBONE|DICT|INTERRES
    85   44   45 1    
    86   44  110 1    
    87   45   46 1    
    88   45   47 1    
    89   45  111 1    
    90   46  112 1    
    91   46  113 1    
    92   46  114 1    
    93   47   48 2    
    94   47   49 am   BACKBONE|DICT|INTERRES
    95   49   50 1    
    96   49  115 1    
    97   50   51 1    
    98   50   52 1    
    99   50  116 1    
   100   51  117 1    
   101   51  118 1    
   102   51  119 1    
   103   52   53 2    
   104   52   54 am   BACKBONE|DICT|INTERRES
   105   54   55 1    
   106   54  120 1    
   107   55   56 1    
   108   55   57 1    
   109   55  121 1    
   110   56  122 1    
   111   56  123 1    
   112   56  124 1    
   113   57   58 2    
   114   57   59 am   BACKBONE|DICT|INTERRES
   115   59   60 1    
   116   59  125 1    
   117   60   61 1    
   118   60   62 1    
   119   60  126 1    
   120   61  127 1    
   121   61  128 1    
   122   61  129 1    
   123   62   63 2    
   124   62   64 am   BACKBONE|DICT|INTERRES
   125   64   65 1    
   126   64  130 1    
   127   65   66 1    
   128   65   69 1    
   129   65  131 1    
   130   66   67 am   BACKBONE|DICT|INTERRES
   131   66   68 2    
   132   67  132 1    
   133   67  133 1    
   134   69   70 1    
   135   69  134 1    
   136   69  135 1    
   137   70   71 1    
   138   71  136 1    
   139   71  137 1    
@<TRIPOS>SUBSTRUCTURE
     1 UNK         1 GROUP             0       ****    0 ROOT    
