@<TRIPOS>MOLECULE
3R136
137   139    1
SMALL
USER_CHARGES


@<TRIPOS>ATOM
      1 CA         24.0180   26.3888    3.6764 C.3       0 UNK        -0.1979 
      2 C          24.6618   25.2000    2.9787 C.2       0 UNK         0.4864 
      3 O          23.9574   24.2804    2.5589 O.2       0 UNK        -0.5359 
      4 N          25.9937   25.2111    2.8546 N.am      1 UNK        -0.4318 
      5 CA         26.7743   24.2116    2.1293 C.3       1 UNK         0.0824 
      6 C6         28.2403   24.1829    2.6305 C.3       12 UNK        -0.0944 
      7 S7         29.1539   22.7052    2.0660 S.3       12 UNK        -0.2672 
      8 C8         30.0973   22.2407    3.5539 C.3       12 UNK         0.0333 
      9 C9         31.2313   23.2187    3.8262 C.ar      12 UNK        -0.0807 
     10 C10        32.4567   23.0777    3.1662 C.ar      12 UNK        -0.0894 
     11 C11        33.4963   23.9868    3.3914 C.ar      12 UNK        -0.0804 
     12 C12        33.3067   25.0282    4.3055 C.ar      12 UNK        -0.0824 
     13 C13        32.0706   25.2088    4.9296 C.ar      12 UNK        -0.0762 
     14 C14        31.0460   24.2832    4.7125 C.ar      12 UNK        -0.0782 
     15 C15        31.8032   26.4712    5.7359 C.3       12 UNK         0.0230 
     16 S16        31.9463   27.9833    4.7110 S.3       12 UNK        -0.2608 
     17 C17        31.0540   27.5464    3.1708 C.3       12 UNK        -0.0989 
     18 CA         29.7351   28.3124    2.9161 C.3       5 UNK         0.0716 
     19 N          29.2576   28.0915    1.5538 N.am      5 UNK        -0.4135 
     20 C          29.7666   28.6287    0.4422 C.2       4 UNK         0.5031 
     21 O          30.7170   29.4112    0.4296 O.2       4 UNK        -0.5229 
     22 CA         29.0914   28.1927   -0.8675 C.3       4 UNK         0.0329 
     23 CB         29.4910   29.0591   -2.0819 C.3       4 UNK        -0.2001 
     24 N          29.2954   26.7613   -1.1241 N.am      4 UNK        -0.4303 
     25 C          30.4317   26.1295   -1.4679 C.2       3 UNK         0.5044 
     26 O          31.5114   26.6977   -1.6334 O.2       3 UNK        -0.5152 
     27 CA         30.3778   24.5979   -1.6703 C.3       3 UNK         0.0319 
     28 CB         31.4204   23.8855   -0.7924 C.3       3 UNK        -0.2001 
     29 N          29.0658   24.0090   -1.4010 N.am      3 UNK        -0.4354 
     30 C          28.0044   24.0553   -2.2193 C.2       2 UNK         0.4964 
     31 O          28.0364   24.5301   -3.3544 O.2       2 UNK        -0.5047 
     32 CA         26.6706   23.5170   -1.6638 C.3       2 UNK         0.0288 
     33 CB         26.3752   22.1201   -2.2338 C.3       2 UNK        -0.2113 
     34 N          26.6169   23.4584   -0.1973 N.am      2 UNK        -0.4145 
     35 C          26.7110   24.5162    0.6218 C.2       1 UNK         0.5006 
     36 O          26.8281   25.6811    0.2276 O.2       1 UNK        -0.5103 
     37 C          28.5871   27.9282    3.8701 C.2       5 UNK         0.5055 
     38 O          27.5481   27.4435    3.4123 O.2       5 UNK        -0.5220 
     39 N          28.7528   28.2056    5.1691 N.am      6 UNK        -0.4450 
     40 CA         27.7943   28.0618    6.2787 C.3       6 UNK         0.0367 
     41 CB         27.2200   26.6351    6.3861 C.3       6 UNK        -0.1929 
     42 C          26.6886   29.1328    6.2506 C.2       6 UNK         0.5070 
     43 O          26.4191   29.7549    7.2773 O.2       6 UNK        -0.5237 
     44 N          26.1352   29.3903    5.0597 N.am      7 UNK        -0.4739 
     45 CA         25.3606   30.5905    4.7215 C.3       7 UNK         0.0276 
     46 CB         24.3319   30.2225    3.6383 C.3       7 UNK        -0.1927 
     47 C          26.2712   31.7472    4.2485 C.2       7 UNK         0.5013 
     48 O          25.7691   32.8116    3.8862 O.2       7 UNK        -0.5193 
     49 N          27.5867   31.5094    4.2462 N.am      8 UNK        -0.4253 
     50 CA         28.6765   32.3927    3.8519 C.3       8 UNK         0.0242 
     51 CB         28.7878   32.4323    2.3134 C.3       8 UNK        -0.2000 
     52 C          29.9541   31.8551    4.5203 C.2       8 UNK         0.4948 
     53 O          29.8696   30.9275    5.3315 O.2       8 UNK        -0.5275 
     54 N          31.1121   32.4116    4.1577 N.am      9 UNK        -0.4246 
     55 CA         32.4300   31.9437    4.5846 C.3       9 UNK         0.0261 
     56 CB         33.0474   32.9809    5.5386 C.3       9 UNK        -0.1959 
     57 C          33.3159   31.7465    3.3481 C.2       9 UNK         0.5033 
     58 O          33.0738   32.3943    2.3264 O.2       9 UNK        -0.5390 
     59 N          34.3414   30.8944    3.4964 N.am      10 UNK        -0.4215 
     60 CA         35.3578   30.5216    2.5040 C.3       10 UNK         0.0240 
     61 CB         36.2046   31.7419    2.0809 C.3       10 UNK        -0.1982 
     62 C          34.7528   29.7733    1.3016 C.2       10 UNK         0.4970 
     63 O          34.4707   30.3843    0.2691 O.2       10 UNK        -0.4916 
     64 N          34.5752   28.4570    1.4730 N.am      11 UNK        -0.4279 
     65 CA         34.1111   27.5100    0.4467 C.3       11 UNK         0.1003 
     66 C          34.9496   27.5089   -0.8629 C.2       11 UNK         0.5709 
     67 N          34.3157   27.2188   -1.9907 N.am      11 UNK        -0.7358 
     68 O          36.1607   27.7252   -0.8607 O.2       11 UNK        -0.4999 
     69 C69        33.9607   26.0718    1.0172 C.3       12 UNK        -0.0954 
     70 S70        35.4127   25.4583    1.9453 S.3       12 UNK        -0.2268 
     71 C71        34.7991   23.8658    2.6047 C.3       12 UNK         0.0203 
     72 H72        24.7547   27.1399    3.9562 H         1 UNK         0.0888 
     73 H73        23.2880   26.8603    3.0191 H         1 UNK         0.0888 
     74 H74        23.5051   26.0627    4.5806 H         1 UNK         0.0888 
     75 H75        26.5165   26.0370    3.1444 H         1 UNK         0.3017 
     76 H76        26.3264   23.2327    2.3154 H         1 UNK         0.0873 
     77 H77        28.7880   25.0763    2.3246 H         1 UNK         0.0745 
     78 H78        28.2396   24.1917    3.7210 H         1 UNK         0.0745 
     79 H79        29.4268   22.1737    4.4122 H         1 UNK         0.0705 
     80 H80        30.5062   21.2394    3.4107 H         1 UNK         0.0705 
     81 H81        32.5896   22.2712    2.4579 H         1 UNK         0.1334 
     82 H82        34.0930   25.7521    4.4690 H         1 UNK         0.1417 
     83 H83        30.0884   24.4190    5.1957 H         1 UNK         0.1562 
     84 H84        32.5130   26.5312    6.5620 H         1 UNK         0.0748 
     85 H85        30.8097   26.4405    6.1856 H         1 UNK         0.0748 
     86 H86        30.8788   26.4762    3.0799 H         1 UNK         0.0940 
     87 H87        31.7527   27.7841    2.3691 H         1 UNK         0.0940 
     88 H88        29.9180   29.3803    3.0346 H         1 UNK         0.0703 
     89 H89        28.4296   27.5087    1.5009 H         1 UNK         0.3081 
     90 H90        28.0174   28.3225   -0.7230 H         1 UNK         0.0719 
     91 H91        30.5643   29.0344   -2.2716 H         1 UNK         0.0809 
     92 H92        28.9820   28.7310   -2.9880 H         1 UNK         0.0809 
     93 H93        29.2204   30.1025   -1.9159 H         1 UNK         0.0809 
     94 H94        28.4747   26.1880   -0.9634 H         1 UNK         0.2990 
     95 H95        30.6288   24.4036   -2.7151 H         1 UNK         0.0690 
     96 H96        31.3239   22.8013   -0.8530 H         1 UNK         0.0788 
     97 H97        31.3344   24.1723    0.2570 H         1 UNK         0.0788 
     98 H98        32.4289   24.1305   -1.1243 H         1 UNK         0.0788 
     99 H99        28.9460   23.5870   -0.4905 H         1 UNK         0.2993 
    100 H100       25.8857   24.1997   -1.9967 H         1 UNK         0.0949 
    101 H101       27.1190   21.3884   -1.9153 H         1 UNK         0.0767 
    102 H102       25.3942   21.7621   -1.9202 H         1 UNK         0.0767 
    103 H103       26.3783   22.1344   -3.3248 H         1 UNK         0.0767 
    104 H104       26.5475   22.5368    0.2111 H         1 UNK         0.3013 
    105 H105       29.6132   28.6832    5.4203 H         1 UNK         0.3121 
    106 H106       28.3770   28.2420    7.1838 H         1 UNK         0.0774 
    107 H107       26.6415   26.5228    7.3038 H         1 UNK         0.0815 
    108 H108       26.5544   26.3905    5.5597 H         1 UNK         0.0815 
    109 H109       28.0137   25.8887    6.4101 H         1 UNK         0.0815 
    110 H110       26.4267   28.8029    4.2842 H         1 UNK         0.2987 
    111 H111       24.8220   30.9418    5.6044 H         1 UNK         0.0949 
    112 H112       24.8134   29.8535    2.7318 H         1 UNK         0.0806 
    113 H113       23.6441   29.4546    3.9918 H         1 UNK         0.0806 
    114 H114       23.7283   31.0872    3.3589 H         1 UNK         0.0806 
    115 H115       27.9130   30.6524    4.6742 H         1 UNK         0.3010 
    116 H116       28.4830   33.3952    4.2389 H         1 UNK         0.0829 
    117 H117       27.8503   32.7475    1.8551 H         1 UNK         0.0813 
    118 H118       29.5514   33.1379    1.9851 H         1 UNK         0.0813 
    119 H119       29.0459   31.4559    1.9016 H         1 UNK         0.0813 
    120 H120       31.1271   33.1008    3.4173 H         1 UNK         0.3038 
    121 H121       32.3511   30.9861    5.1034 H         1 UNK         0.0769 
    122 H122       32.4250   33.1229    6.4223 H         1 UNK         0.0811 
    123 H123       33.1690   33.9513    5.0553 H         1 UNK         0.0811 
    124 H124       34.0316   32.6622    5.8841 H         1 UNK         0.0811 
    125 H125       34.4207   30.4171    4.3841 H         1 UNK         0.3204 
    126 H126       36.0355   29.8291    3.0064 H         1 UNK         0.0748 
    127 H127       36.6713   32.2182    2.9431 H         1 UNK         0.0771 
    128 H128       37.0045   31.4407    1.4034 H         1 UNK         0.0771 
    129 H129       35.6119   32.4963    1.5627 H         1 UNK         0.0771 
    130 H130       34.8584   28.0341    2.3439 H         1 UNK         0.2980 
    131 H131       33.1126   27.8546    0.1720 H         1 UNK         0.0545 
    132 H132       34.8251   27.1937   -2.8591 H         1 UNK         0.3459 
    133 H133       33.3141   27.0356   -1.9764 H         1 UNK         0.3459 
    134 H134       33.0934   26.0438    1.6742 H         1 UNK         0.0616 
    135 H135       33.7413   25.3604    0.2225 H         1 UNK         0.0616 
    136 H136       35.5633   23.4356    3.2528 H         1 UNK         0.0634 
    137 H137       34.6768   23.1770    1.7674 H         1 UNK         0.0634 
@<TRIPOS>BOND
     1    1    2 1    
     2    1   72 1    
     3    1   73 1    
     4    1   74 1    
     5    2    3 2    
     6    2    4 am   BACKBONE|DICT|INTERRES
     7    4    5 1    
     8    4   75 1    
     9    5    6 1    
    10    5   35 1    
    11    5   76 1    
    12    6    7 1    
    13    6   77 1    
    14    6   78 1    
    15    7    8 1    
    16    8    9 1    
    17    8   79 1    
    18    8   80 1    
    19    9   10 ar   
    20    9   14 ar   
    21   10   11 ar   
    22   10   81 1    
    23   11   12 ar   
    24   11   71 1    
    25   12   13 ar   
    26   12   82 1    
    27   13   14 ar   
    28   13   15 1    
    29   14   83 1    
    30   15   16 1    
    31   15   84 1    
    32   15   85 1    
    33   16   17 1    
    34   17   18 1    
    35   17   86 1    
    36   17   87 1    
    37   18   19 1    
    38   18   37 1    
    39   18   88 1    
    40   19   20 am   BACKBONE|DICT|INTERRES
    41   19   89 1    
    42   20   21 2    
    43   20   22 1    
    44   22   23 1    
    45   22   24 1    
    46   22   90 1    
    47   23   91 1    
    48   23   92 1    
    49   23   93 1    
    50   24   25 am   BACKBONE|DICT|INTERRES
    51   24   94 1    
    52   25   26 2    
    53   25   27 1    
    54   27   28 1    
    55   27   29 1    
    56   27   95 1    
    57   28   96 1    
    58   28   97 1    
    59   28   98 1    
    60   29   30 am   BACKBONE|DICT|INTERRES
    61   29   99 1    
    62   30   31 2    
    63   30   32 1    
    64   32   33 1    
    65   32   34 1    
    66   32  100 1    
    67   33  101 1    
    68   33  102 1    
    69   33  103 1    
    70   34   35 am   BACKBONE|DICT|INTERRES
    71   34  104 1    
    72   35   36 2    
    73   37   38 2    
    74   37   39 am   BACKBONE|DICT|INTERRES
    75   39   40 1    
    76   39  105 1    
    77   40   41 1    
    78   40   42 1    
    79   40  106 1    
    80   41  107 1    
    81   41  108 1    
    82   41  109 1    
    83   42   43 2    
    84   42   44 am   BACKBONE|DICT|INTERRES
    85   44   45 1    
    86   44  110 1    
    87   45   46 1    
    88   45   47 1    
    89   45  111 1    
    90   46  112 1    
    91   46  113 1    
    92   46  114 1    
    93   47   48 2    
    94   47   49 am   BACKBONE|DICT|INTERRES
    95   49   50 1    
    96   49  115 1    
    97   50   51 1    
    98   50   52 1    
    99   50  116 1    
   100   51  117 1    
   101   51  118 1    
   102   51  119 1    
   103   52   53 2    
   104   52   54 am   BACKBONE|DICT|INTERRES
   105   54   55 1    
   106   54  120 1    
   107   55   56 1    
   108   55   57 1    
   109   55  121 1    
   110   56  122 1    
   111   56  123 1    
   112   56  124 1    
   113   57   58 2    
   114   57   59 am   BACKBONE|DICT|INTERRES
   115   59   60 1    
   116   59  125 1    
   117   60   61 1    
   118   60   62 1    
   119   60  126 1    
   120   61  127 1    
   121   61  128 1    
   122   61  129 1    
   123   62   63 2    
   124   62   64 am   BACKBONE|DICT|INTERRES
   125   64   65 1    
   126   64  130 1    
   127   65   66 1    
   128   65   69 1    
   129   65  131 1    
   130   66   67 am   BACKBONE|DICT|INTERRES
   131   66   68 2    
   132   67  132 1    
   133   67  133 1    
   134   69   70 1    
   135   69  134 1    
   136   69  135 1    
   137   70   71 1    
   138   71  136 1    
   139   71  137 1    
@<TRIPOS>SUBSTRUCTURE
     1 UNK         1 GROUP             0       ****    0 ROOT    
