@<TRIPOS>MOLECULE
3R136
137   139    1
SMALL
USER_CHARGES


@<TRIPOS>ATOM
      1 CA         28.5827   22.4245    5.1160 C.3       0 UNK        -0.1979 
      2 C          27.7739   22.3876    3.8277 C.2       0 UNK         0.4864 
      3 O          26.5445   22.3369    3.8858 O.2       0 UNK        -0.5359 
      4 N          28.4488   22.3951    2.6692 N.am      1 UNK        -0.4318 
      5 CA         27.8172   22.3709    1.3488 C.3       1 UNK         0.0824 
      6 C6         28.7605   21.8002    0.2546 C.3       12 UNK        -0.0944 
      7 S7         30.2627   22.7862   -0.0698 S.3       12 UNK        -0.2672 
      8 C8         31.6189   21.7631    0.5893 C.3       12 UNK         0.0333 
      9 C9         32.5248   22.6237    1.4538 C.ar      12 UNK        -0.0807 
     10 C10        33.6054   23.3159    0.8965 C.ar      12 UNK        -0.0894 
     11 C11        34.3684   24.1882    1.6817 C.ar      12 UNK        -0.0804 
     12 C12        34.0365   24.3709    3.0284 C.ar      12 UNK        -0.0824 
     13 C13        32.9525   23.6903    3.5880 C.ar      12 UNK        -0.0762 
     14 C14        32.2309   22.7846    2.8082 C.ar      12 UNK        -0.0782 
     15 C15        32.5108   23.9777    5.0144 C.3       12 UNK         0.0230 
     16 S16        31.6113   25.5630    5.1536 S.3       12 UNK        -0.2608 
     17 C17        30.2950   25.4635    3.8819 C.3       12 UNK        -0.0989 
     18 CA         30.0029   26.8537    3.2587 C.3       5 UNK         0.0716 
     19 N          29.9143   26.8244    1.7936 N.am      5 UNK        -0.4135 
     20 C          30.3234   27.8403    1.0200 C.2       4 UNK         0.5031 
     21 O          30.7924   28.8866    1.4692 O.2       4 UNK        -0.5229 
     22 CA         30.2107   27.6636   -0.5007 C.3       4 UNK         0.0329 
     23 CB         30.9699   26.4255   -1.0009 C.3       4 UNK        -0.2001 
     24 N          28.8174   27.5768   -0.9244 N.am      4 UNK        -0.4303 
     25 C          28.0158   28.6217   -1.1522 C.2       3 UNK         0.5044 
     26 O          28.3788   29.7909   -1.0380 O.2       3 UNK        -0.5152 
     27 CA         26.5643   28.3374   -1.5891 C.3       3 UNK         0.0319 
     28 CB         26.4530   28.3038   -3.1258 C.3       3 UNK        -0.2001 
     29 N          25.9359   27.1515   -0.9836 N.am      3 UNK        -0.4354 
     30 C          26.2669   25.8596   -1.1205 C.2       2 UNK         0.4964 
     31 O          27.1951   25.4499   -1.8206 O.2       2 UNK        -0.5047 
     32 CA         25.4049   24.8578   -0.3370 C.3       2 UNK         0.0288 
     33 CB         24.2408   24.3601   -1.2091 C.3       2 UNK        -0.2113 
     34 N          26.1692   23.7049    0.1421 N.am      2 UNK        -0.4145 
     35 C          27.2128   23.7465    0.9836 C.2       1 UNK         0.5006 
     36 O          27.6822   24.7896    1.4615 O.2       1 UNK        -0.5103 
     37 C          28.7478   27.4952    3.8710 C.2       5 UNK         0.5055 
     38 O          28.8651   28.2603    4.8294 O.2       5 UNK        -0.5220 
     39 N          27.5731   27.1902    3.2970 N.am      6 UNK        -0.4450 
     40 CA         26.2666   27.6758    3.7562 C.3       6 UNK         0.0367 
     41 CB         25.1585   27.0321    2.9120 C.3       6 UNK        -0.1929 
     42 C          26.1208   29.2087    3.7525 C.2       6 UNK         0.5070 
     43 O          25.3982   29.7472    4.5911 O.2       6 UNK        -0.5237 
     44 N          26.8386   29.8945    2.8523 N.am      7 UNK        -0.4739 
     45 CA         26.9143   31.3561    2.7690 C.3       7 UNK         0.0276 
     46 CB         27.2667   31.7563    1.3257 C.3       7 UNK        -0.1927 
     47 C          27.9042   31.9414    3.7977 C.2       7 UNK         0.5013 
     48 O          28.7956   32.7037    3.4239 O.2       7 UNK        -0.5193 
     49 N          27.7365   31.5610    5.0725 N.am      8 UNK        -0.4253 
     50 CA         28.5164   31.9855    6.2426 C.3       8 UNK         0.0242 
     51 CB         28.1906   33.4529    6.5953 C.3       8 UNK        -0.2000 
     52 C          30.0317   31.7251    6.1045 C.2       8 UNK         0.4948 
     53 O          30.8366   32.6024    6.4245 O.2       8 UNK        -0.5275 
     54 N          30.3864   30.5190    5.6352 N.am      9 UNK        -0.4246 
     55 CA         31.7498   30.0160    5.4309 C.3       9 UNK         0.0261 
     56 CB         32.4853   29.8492    6.7782 C.3       9 UNK        -0.1959 
     57 C          32.5617   30.8186    4.3945 C.2       9 UNK         0.5033 
     58 O          33.7662   31.0088    4.5789 O.2       9 UNK        -0.5390 
     59 N          31.9094   31.2393    3.2985 N.am      10 UNK        -0.4215 
     60 CA         32.5239   31.9486    2.1651 C.3       10 UNK         0.0240 
     61 CB         31.4411   32.3309    1.1423 C.3       10 UNK        -0.1982 
     62 C          33.6654   31.1719    1.4786 C.2       10 UNK         0.4970 
     63 O          34.5727   31.7964    0.9275 O.2       10 UNK        -0.4916 
     64 N          33.6169   29.8363    1.5590 N.am      11 UNK        -0.4279 
     65 CA         34.6980   28.9094    1.1928 C.3       11 UNK         0.1003 
     66 C          36.0251   29.0896    1.9937 C.2       11 UNK         0.5709 
     67 N          36.0255   29.7325    3.1568 N.am      11 UNK        -0.7358 
     68 O          37.0787   28.6438    1.5463 O.2       11 UNK        -0.4999 
     69 C69        34.1945   27.4434    1.2689 C.3       12 UNK        -0.0954 
     70 S70        34.9656   26.3437    0.0347 S.3       12 UNK        -0.2268 
     71 C71        35.5326   24.9561    1.0692 C.3       12 UNK         0.0203 
     72 H72        28.3001   23.2903    5.7144 H         1 UNK         0.0888 
     73 H73        28.3875   21.5285    5.7046 H         1 UNK         0.0888 
     74 H74        29.6528   22.4754    4.9262 H         1 UNK         0.0888 
     75 H75        29.4520   22.4807    2.6604 H         1 UNK         0.3017 
     76 H76        26.9776   21.6748    1.4180 H         1 UNK         0.0873 
     77 H77        29.0429   20.7787    0.5125 H         1 UNK         0.0745 
     78 H78        28.2198   21.7119   -0.6895 H         1 UNK         0.0745 
     79 H79        32.1799   21.3290   -0.2396 H         1 UNK         0.0705 
     80 H80        31.2311   20.9270    1.1726 H         1 UNK         0.0705 
     81 H81        33.8336   23.2021   -0.1545 H         1 UNK         0.1334 
     82 H82        34.5982   25.0679    3.6352 H         1 UNK         0.1417 
     83 H83        31.3973   22.2522    3.2407 H         1 UNK         0.1562 
     84 H84        33.3857   24.0117    5.6653 H         1 UNK         0.0748 
     85 H85        31.8830   23.1728    5.3973 H         1 UNK         0.0748 
     86 H86        29.4062   25.0166    4.3284 H         1 UNK         0.0940 
     87 H87        30.5936   24.7767    3.0947 H         1 UNK         0.0940 
     88 H88        30.8364   27.5093    3.5133 H         1 UNK         0.0703 
     89 H89        29.4855   26.0079    1.3738 H         1 UNK         0.3081 
     90 H90        30.6697   28.5384   -0.9670 H         1 UNK         0.0719 
     91 H91        30.9618   26.3727   -2.0896 H         1 UNK         0.0809 
     92 H92        32.0132   26.4405   -0.6892 H         1 UNK         0.0809 
     93 H93        30.5289   25.5058   -0.6244 H         1 UNK         0.0809 
     94 H94        28.4349   26.6515   -1.1024 H         1 UNK         0.2990 
     95 H95        25.9730   29.1860   -1.2407 H         1 UNK         0.0690 
     96 H96        27.0325   27.4886   -3.5601 H         1 UNK         0.0788 
     97 H97        26.8246   29.2318   -3.5626 H         1 UNK         0.0788 
     98 H98        25.4177   28.1873   -3.4462 H         1 UNK         0.0788 
     99 H99        25.1464   27.3638   -0.3900 H         1 UNK         0.2993 
    100 H100       24.9902   25.3573    0.5389 H         1 UNK         0.0949 
    101 H101       24.5981   23.8248   -2.0902 H         1 UNK         0.0767 
    102 H102       23.5836   23.6914   -0.6526 H         1 UNK         0.0767 
    103 H103       23.6293   25.1926   -1.5604 H         1 UNK         0.0767 
    104 H104       25.8803   22.8075   -0.2182 H         1 UNK         0.3013 
    105 H105       27.5690   26.5053    2.5472 H         1 UNK         0.3121 
    106 H106       26.1444   27.3428    4.7890 H         1 UNK         0.0774 
    107 H107       24.1723   27.3185    3.2804 H         1 UNK         0.0815 
    108 H108       25.2201   27.3463    1.8709 H         1 UNK         0.0815 
    109 H109       25.2131   25.9437    2.9473 H         1 UNK         0.0815 
    110 H110       27.4447   29.3767    2.2330 H         1 UNK         0.2987 
    111 H111       25.9318   31.7755    2.9972 H         1 UNK         0.0949 
    112 H112       28.2659   31.4173    1.0496 H         1 UNK         0.0806 
    113 H113       26.5589   31.3386    0.6096 H         1 UNK         0.0806 
    114 H114       27.2474   32.8400    1.2040 H         1 UNK         0.0806 
    115 H115       26.9782   30.9112    5.2542 H         1 UNK         0.3010 
    116 H116       28.1803   31.3652    7.0749 H         1 UNK         0.0829 
    117 H117       28.6754   33.7495    7.5262 H         1 UNK         0.0813 
    118 H118       28.5301   34.1390    5.8184 H         1 UNK         0.0813 
    119 H119       27.1191   33.6010    6.7288 H         1 UNK         0.0813 
    120 H120       29.6508   29.8550    5.3967 H         1 UNK         0.3038 
    121 H121       31.6401   29.0178    5.0093 H         1 UNK         0.0769 
    122 H122       33.4409   29.3415    6.6411 H         1 UNK         0.0811 
    123 H123       31.9010   29.2508    7.4770 H         1 UNK         0.0811 
    124 H124       32.6936   30.8105    7.2488 H         1 UNK         0.0811 
    125 H125       30.9201   31.0467    3.2223 H         1 UNK         0.3204 
    126 H126       32.9576   32.8692    2.5603 H         1 UNK         0.0748 
    127 H127       31.8753   32.8548    0.2897 H         1 UNK         0.0771 
    128 H128       30.9200   31.4549    0.7545 H         1 UNK         0.0771 
    129 H129       30.6981   32.9962    1.5812 H         1 UNK         0.0771 
    130 H130       32.7757   29.4224    1.9416 H         1 UNK         0.2980 
    131 H131       34.9352   29.1380    0.1522 H         1 UNK         0.0545 
    132 H132       35.1757   30.1312    3.5443 H         1 UNK         0.3459 
    133 H133       36.8952   29.8411    3.6529 H         1 UNK         0.3459 
    134 H134       34.3186   27.0459    2.2766 H         1 UNK         0.0616 
    135 H135       33.1248   27.3975    1.0791 H         1 UNK         0.0616 
    136 H136       36.1279   24.2797    0.4545 H         1 UNK         0.0634 
    137 H137       36.2015   25.3349    1.8438 H         1 UNK         0.0634 
@<TRIPOS>BOND
     1    1    2 1    
     2    1   72 1    
     3    1   73 1    
     4    1   74 1    
     5    2    3 2    
     6    2    4 am   BACKBONE|DICT|INTERRES
     7    4    5 1    
     8    4   75 1    
     9    5    6 1    
    10    5   35 1    
    11    5   76 1    
    12    6    7 1    
    13    6   77 1    
    14    6   78 1    
    15    7    8 1    
    16    8    9 1    
    17    8   79 1    
    18    8   80 1    
    19    9   10 ar   
    20    9   14 ar   
    21   10   11 ar   
    22   10   81 1    
    23   11   12 ar   
    24   11   71 1    
    25   12   13 ar   
    26   12   82 1    
    27   13   14 ar   
    28   13   15 1    
    29   14   83 1    
    30   15   16 1    
    31   15   84 1    
    32   15   85 1    
    33   16   17 1    
    34   17   18 1    
    35   17   86 1    
    36   17   87 1    
    37   18   19 1    
    38   18   37 1    
    39   18   88 1    
    40   19   20 am   BACKBONE|DICT|INTERRES
    41   19   89 1    
    42   20   21 2    
    43   20   22 1    
    44   22   23 1    
    45   22   24 1    
    46   22   90 1    
    47   23   91 1    
    48   23   92 1    
    49   23   93 1    
    50   24   25 am   BACKBONE|DICT|INTERRES
    51   24   94 1    
    52   25   26 2    
    53   25   27 1    
    54   27   28 1    
    55   27   29 1    
    56   27   95 1    
    57   28   96 1    
    58   28   97 1    
    59   28   98 1    
    60   29   30 am   BACKBONE|DICT|INTERRES
    61   29   99 1    
    62   30   31 2    
    63   30   32 1    
    64   32   33 1    
    65   32   34 1    
    66   32  100 1    
    67   33  101 1    
    68   33  102 1    
    69   33  103 1    
    70   34   35 am   BACKBONE|DICT|INTERRES
    71   34  104 1    
    72   35   36 2    
    73   37   38 2    
    74   37   39 am   BACKBONE|DICT|INTERRES
    75   39   40 1    
    76   39  105 1    
    77   40   41 1    
    78   40   42 1    
    79   40  106 1    
    80   41  107 1    
    81   41  108 1    
    82   41  109 1    
    83   42   43 2    
    84   42   44 am   BACKBONE|DICT|INTERRES
    85   44   45 1    
    86   44  110 1    
    87   45   46 1    
    88   45   47 1    
    89   45  111 1    
    90   46  112 1    
    91   46  113 1    
    92   46  114 1    
    93   47   48 2    
    94   47   49 am   BACKBONE|DICT|INTERRES
    95   49   50 1    
    96   49  115 1    
    97   50   51 1    
    98   50   52 1    
    99   50  116 1    
   100   51  117 1    
   101   51  118 1    
   102   51  119 1    
   103   52   53 2    
   104   52   54 am   BACKBONE|DICT|INTERRES
   105   54   55 1    
   106   54  120 1    
   107   55   56 1    
   108   55   57 1    
   109   55  121 1    
   110   56  122 1    
   111   56  123 1    
   112   56  124 1    
   113   57   58 2    
   114   57   59 am   BACKBONE|DICT|INTERRES
   115   59   60 1    
   116   59  125 1    
   117   60   61 1    
   118   60   62 1    
   119   60  126 1    
   120   61  127 1    
   121   61  128 1    
   122   61  129 1    
   123   62   63 2    
   124   62   64 am   BACKBONE|DICT|INTERRES
   125   64   65 1    
   126   64  130 1    
   127   65   66 1    
   128   65   69 1    
   129   65  131 1    
   130   66   67 am   BACKBONE|DICT|INTERRES
   131   66   68 2    
   132   67  132 1    
   133   67  133 1    
   134   69   70 1    
   135   69  134 1    
   136   69  135 1    
   137   70   71 1    
   138   71  136 1    
   139   71  137 1    
@<TRIPOS>SUBSTRUCTURE
     1 UNK         1 GROUP             0       ****    0 ROOT    
