@<TRIPOS>MOLECULE
3R136
137   139    1
SMALL
USER_CHARGES


@<TRIPOS>ATOM
      1 CA         27.2113   18.2870    3.5254 C.3       0 UNK        -0.1979 
      2 C          26.9682   19.4987    2.6375 C.2       0 UNK         0.4864 
      3 O          25.8809   19.6363    2.0742 O.2       0 UNK        -0.5359 
      4 N          27.9743   20.3711    2.5012 N.am      1 UNK        -0.4318 
      5 CA         27.9000   21.6314    1.7572 C.3       1 UNK         0.0824 
      6 C6         29.3094   22.1874    1.4175 C.3       12 UNK        -0.0944 
      7 S7         30.4178   22.3385    2.8639 S.3       12 UNK        -0.2672 
      8 C8         32.0581   22.2593    2.0828 C.3       12 UNK         0.0333 
      9 C9         32.4607   23.5976    1.4819 C.ar      12 UNK        -0.0807 
     10 C10        32.9188   24.6215    2.3155 C.ar      12 UNK        -0.0894 
     11 C11        33.3252   25.8457    1.7791 C.ar      12 UNK        -0.0804 
     12 C12        33.2846   26.0379    0.3954 C.ar      12 UNK        -0.0824 
     13 C13        32.8239   25.0241   -0.4504 C.ar      12 UNK        -0.0762 
     14 C14        32.4050   23.8074    0.1003 C.ar      12 UNK        -0.0782 
     15 C15        32.8165   25.2219   -1.9599 C.3       12 UNK         0.0230 
     16 S16        31.3381   26.1165   -2.5347 S.3       12 UNK        -0.2608 
     17 C17        31.8889   27.8623   -2.4707 C.3       12 UNK        -0.0989 
     18 CA         30.9086   28.8111   -1.7361 C.3       5 UNK         0.0716 
     19 N          29.5608   28.7329   -2.3028 N.am      5 UNK        -0.4135 
     20 C          28.5712   29.6037   -2.0756 C.2       4 UNK         0.5031 
     21 O          28.6966   30.6115   -1.3803 O.2       4 UNK        -0.5229 
     22 CA         27.1926   29.2833   -2.6875 C.3       4 UNK         0.0329 
     23 CB         27.2154   28.1575   -3.7478 C.3       4 UNK        -0.2001 
     24 N          26.1993   28.9832   -1.6484 N.am      4 UNK        -0.4303 
     25 C          26.2990   28.0488   -0.6904 C.2       3 UNK         0.5044 
     26 O          27.2826   27.3157   -0.5575 O.2       3 UNK        -0.5152 
     27 CA         25.1196   27.9640    0.3037 C.3       3 UNK         0.0319 
     28 CB         23.7512   27.8979   -0.4109 C.3       3 UNK        -0.2001 
     29 N          25.2514   26.8651    1.2719 N.am      3 UNK        -0.4354 
     30 C          25.2905   25.5515    1.0049 C.2       2 UNK         0.4964 
     31 O          25.1448   25.0541   -0.1156 O.2       2 UNK        -0.5047 
     32 CA         25.5217   24.6249    2.2012 C.3       2 UNK         0.0288 
     33 CB         24.1838   24.1366    2.7890 C.3       2 UNK        -0.2113 
     34 N          26.3217   23.4992    1.7324 N.am      2 UNK        -0.4145 
     35 C          27.0361   22.6724    2.5014 C.2       1 UNK         0.5006 
     36 O          27.0513   22.7251    3.7350 O.2       1 UNK        -0.5103 
     37 C          30.9504   28.6091   -0.2050 C.2       5 UNK         0.5055 
     38 O          31.8698   29.1212    0.4335 O.2       5 UNK        -0.5220 
     39 N          29.9740   27.8830    0.3572 N.am      6 UNK        -0.4450 
     40 CA         29.8751   27.5817    1.7864 C.3       6 UNK         0.0367 
     41 CB         29.3782   26.1354    1.9529 C.3       6 UNK        -0.1929 
     42 C          28.9661   28.5681    2.5405 C.2       6 UNK         0.5070 
     43 O          28.7957   28.4099    3.7512 O.2       6 UNK        -0.5237 
     44 N          28.3898   29.5593    1.8404 N.am      7 UNK        -0.4739 
     45 CA         27.5041   30.5843    2.4013 C.3       7 UNK         0.0276 
     46 CB         27.0295   31.5293    1.2866 C.3       7 UNK        -0.1927 
     47 C          28.1893   31.3802    3.5233 C.2       7 UNK         0.5013 
     48 O          29.2944   31.8868    3.3192 O.2       7 UNK        -0.5193 
     49 N          27.5349   31.4292    4.6926 N.am      8 UNK        -0.4253 
     50 CA         27.9986   32.0495    5.9422 C.3       8 UNK         0.0242 
     51 CB         28.0646   33.5850    5.7910 C.3       8 UNK        -0.2000 
     52 C          29.3142   31.4594    6.4993 C.2       8 UNK         0.4948 
     53 O          29.9702   32.1230    7.3040 O.2       8 UNK        -0.5275 
     54 N          29.6726   30.2343    6.0750 N.am      9 UNK        -0.4246 
     55 CA         30.9086   29.5107    6.3966 C.3       9 UNK         0.0261 
     56 CB         30.9243   29.0782    7.8784 C.3       9 UNK        -0.1959 
     57 C          32.1721   30.2907    5.9809 C.2       9 UNK         0.5033 
     58 O          33.1026   30.4305    6.7775 O.2       9 UNK        -0.5390 
     59 N          32.1808   30.7804    4.7308 N.am      10 UNK        -0.4215 
     60 CA         33.2237   31.6263    4.1299 C.3       10 UNK         0.0240 
     61 CB         32.8265   31.9536    2.6815 C.3       10 UNK        -0.1982 
     62 C          34.6631   31.0721    4.1731 C.2       10 UNK         0.4970 
     63 O          35.6053   31.8591    4.0708 O.2       10 UNK        -0.4916 
     64 N          34.8147   29.7522    4.3382 N.am      11 UNK        -0.4279 
     65 CA         36.0966   29.0817    4.6052 C.3       11 UNK         0.1003 
     66 C          36.7088   29.4047    6.0018 C.2       11 UNK         0.5709 
     67 N          35.9556   29.9293    6.9623 N.am      11 UNK        -0.7358 
     68 O          37.8977   29.1777    6.2138 O.2       11 UNK        -0.4999 
     69 C69        35.9886   27.5477    4.4062 C.3       12 UNK        -0.0954 
     70 S70        35.6253   27.0662    2.6856 S.3       12 UNK        -0.2268 
     71 C71        33.8098   26.9564    2.6962 C.3       12 UNK         0.0203 
     72 H72        26.4983   18.2771    4.3494 H         1 UNK         0.0888 
     73 H73        27.0833   17.3693    2.9519 H         1 UNK         0.0888 
     74 H74        28.2164   18.2860    3.9469 H         1 UNK         0.0888 
     75 H75        28.8324   20.2333    3.0162 H         1 UNK         0.3017 
     76 H76        27.4012   21.4147    0.8096 H         1 UNK         0.0873 
     77 H77        29.7804   21.5233    0.6913 H         1 UNK         0.0745 
     78 H78        29.2395   23.1577    0.9223 H         1 UNK         0.0745 
     79 H79        32.0791   21.4680    1.3320 H         1 UNK         0.0705 
     80 H80        32.7897   21.9737    2.8402 H         1 UNK         0.0705 
     81 H81        32.9589   24.4613    3.3844 H         1 UNK         0.1334 
     82 H82        33.6169   26.9797   -0.0177 H         1 UNK         0.1417 
     83 H83        32.0529   23.0168   -0.5485 H         1 UNK         0.1562 
     84 H84        32.8425   24.2519   -2.4589 H         1 UNK         0.0748 
     85 H85        33.7219   25.7403   -2.2788 H         1 UNK         0.0748 
     86 H86        32.0080   28.2015   -3.5010 H         1 UNK         0.0940 
     87 H87        32.8861   27.9346   -2.0342 H         1 UNK         0.0940 
     88 H88        31.2607   29.8305   -1.9100 H         1 UNK         0.0703 
     89 H89        29.3628   27.9067   -2.8488 H         1 UNK         0.3081 
     90 H90        26.8618   30.1972   -3.1833 H         1 UNK         0.0719 
     91 H91        27.4877   27.1903   -3.3233 H         1 UNK         0.0809 
     92 H92        26.2354   28.0429   -4.2112 H         1 UNK         0.0809 
     93 H93        27.9196   28.3825   -4.5502 H         1 UNK         0.0809 
     94 H94        25.3763   29.5688   -1.6567 H         1 UNK         0.2990 
     95 H95        25.1459   28.8819    0.8922 H         1 UNK         0.0690 
     96 H96        23.7052   27.0749   -1.1250 H         1 UNK         0.0788 
     97 H97        23.5398   28.8159   -0.9596 H         1 UNK         0.0788 
     98 H98        22.9386   27.7635    0.3033 H         1 UNK         0.0788 
     99 H99        25.3925   27.1548    2.2293 H         1 UNK         0.2993 
    100 H100       26.0861   25.1630    2.9664 H         1 UNK         0.0949 
    101 H101       23.6058   23.5727    2.0556 H         1 UNK         0.0767 
    102 H102       24.3385   23.4953    3.6569 H         1 UNK         0.0767 
    103 H103       23.5697   24.9773    3.1143 H         1 UNK         0.0767 
    104 H104       26.3565   23.4191    0.7229 H         1 UNK         0.3013 
    105 H105       29.2091   27.5413   -0.2195 H         1 UNK         0.3121 
    106 H106       30.8630   27.6464    2.2457 H         1 UNK         0.0774 
    107 H107       29.3406   25.8475    3.0043 H         1 UNK         0.0815 
    108 H108       28.3792   25.9990    1.5395 H         1 UNK         0.0815 
    109 H109       30.0462   25.4341    1.4532 H         1 UNK         0.0815 
    110 H110       28.6239   29.6506    0.8608 H         1 UNK         0.2987 
    111 H111       26.6315   30.0704    2.8096 H         1 UNK         0.0949 
    112 H112       27.8654   32.0622    0.8309 H         1 UNK         0.0806 
    113 H113       26.5080   30.9916    0.4962 H         1 UNK         0.0806 
    114 H114       26.3404   32.2794    1.6769 H         1 UNK         0.0806 
    115 H115       26.6431   30.9571    4.7562 H         1 UNK         0.3010 
    116 H116       27.2364   31.8263    6.6903 H         1 UNK         0.0829 
    117 H117       28.2562   34.0672    6.7504 H         1 UNK         0.0813 
    118 H118       28.8603   33.8902    5.1106 H         1 UNK         0.0813 
    119 H119       27.1256   33.9880    5.4116 H         1 UNK         0.0813 
    120 H120       29.0751   29.7727    5.3967 H         1 UNK         0.3038 
    121 H121       30.8976   28.6029    5.7911 H         1 UNK         0.0769 
    122 H122       31.7887   28.4480    8.0913 H         1 UNK         0.0811 
    123 H123       30.0342   28.5032    8.1334 H         1 UNK         0.0811 
    124 H124       30.9751   29.9348    8.5513 H         1 UNK         0.0811 
    125 H125       31.3439   30.6600    4.1752 H         1 UNK         0.3204 
    126 H126       33.2331   32.5591    4.6970 H         1 UNK         0.0748 
    127 H127       33.5640   32.6028    2.2072 H         1 UNK         0.0771 
    128 H128       32.7479   31.0516    2.0740 H         1 UNK         0.0771 
    129 H129       31.8688   32.4724    2.6378 H         1 UNK         0.0771 
    130 H130       33.9877   29.1848    4.4277 H         1 UNK         0.2980 
    131 H131       36.8139   29.4586    3.8735 H         1 UNK         0.0545 
    132 H132       34.9663   30.1149    6.8158 H         1 UNK         0.3459 
    133 H133       36.3731   30.1335    7.8558 H         1 UNK         0.3459 
    134 H134       36.9348   27.0669    4.6624 H         1 UNK         0.0616 
    135 H135       35.2476   27.1181    5.0823 H         1 UNK         0.0616 
    136 H136       33.4425   26.7863    3.7089 H         1 UNK         0.0634 
    137 H137       33.3946   27.9127    2.3752 H         1 UNK         0.0634 
@<TRIPOS>BOND
     1    1    2 1    
     2    1   72 1    
     3    1   73 1    
     4    1   74 1    
     5    2    3 2    
     6    2    4 am   BACKBONE|DICT|INTERRES
     7    4    5 1    
     8    4   75 1    
     9    5    6 1    
    10    5   35 1    
    11    5   76 1    
    12    6    7 1    
    13    6   77 1    
    14    6   78 1    
    15    7    8 1    
    16    8    9 1    
    17    8   79 1    
    18    8   80 1    
    19    9   10 ar   
    20    9   14 ar   
    21   10   11 ar   
    22   10   81 1    
    23   11   12 ar   
    24   11   71 1    
    25   12   13 ar   
    26   12   82 1    
    27   13   14 ar   
    28   13   15 1    
    29   14   83 1    
    30   15   16 1    
    31   15   84 1    
    32   15   85 1    
    33   16   17 1    
    34   17   18 1    
    35   17   86 1    
    36   17   87 1    
    37   18   19 1    
    38   18   37 1    
    39   18   88 1    
    40   19   20 am   BACKBONE|DICT|INTERRES
    41   19   89 1    
    42   20   21 2    
    43   20   22 1    
    44   22   23 1    
    45   22   24 1    
    46   22   90 1    
    47   23   91 1    
    48   23   92 1    
    49   23   93 1    
    50   24   25 am   BACKBONE|DICT|INTERRES
    51   24   94 1    
    52   25   26 2    
    53   25   27 1    
    54   27   28 1    
    55   27   29 1    
    56   27   95 1    
    57   28   96 1    
    58   28   97 1    
    59   28   98 1    
    60   29   30 am   BACKBONE|DICT|INTERRES
    61   29   99 1    
    62   30   31 2    
    63   30   32 1    
    64   32   33 1    
    65   32   34 1    
    66   32  100 1    
    67   33  101 1    
    68   33  102 1    
    69   33  103 1    
    70   34   35 am   BACKBONE|DICT|INTERRES
    71   34  104 1    
    72   35   36 2    
    73   37   38 2    
    74   37   39 am   BACKBONE|DICT|INTERRES
    75   39   40 1    
    76   39  105 1    
    77   40   41 1    
    78   40   42 1    
    79   40  106 1    
    80   41  107 1    
    81   41  108 1    
    82   41  109 1    
    83   42   43 2    
    84   42   44 am   BACKBONE|DICT|INTERRES
    85   44   45 1    
    86   44  110 1    
    87   45   46 1    
    88   45   47 1    
    89   45  111 1    
    90   46  112 1    
    91   46  113 1    
    92   46  114 1    
    93   47   48 2    
    94   47   49 am   BACKBONE|DICT|INTERRES
    95   49   50 1    
    96   49  115 1    
    97   50   51 1    
    98   50   52 1    
    99   50  116 1    
   100   51  117 1    
   101   51  118 1    
   102   51  119 1    
   103   52   53 2    
   104   52   54 am   BACKBONE|DICT|INTERRES
   105   54   55 1    
   106   54  120 1    
   107   55   56 1    
   108   55   57 1    
   109   55  121 1    
   110   56  122 1    
   111   56  123 1    
   112   56  124 1    
   113   57   58 2    
   114   57   59 am   BACKBONE|DICT|INTERRES
   115   59   60 1    
   116   59  125 1    
   117   60   61 1    
   118   60   62 1    
   119   60  126 1    
   120   61  127 1    
   121   61  128 1    
   122   61  129 1    
   123   62   63 2    
   124   62   64 am   BACKBONE|DICT|INTERRES
   125   64   65 1    
   126   64  130 1    
   127   65   66 1    
   128   65   69 1    
   129   65  131 1    
   130   66   67 am   BACKBONE|DICT|INTERRES
   131   66   68 2    
   132   67  132 1    
   133   67  133 1    
   134   69   70 1    
   135   69  134 1    
   136   69  135 1    
   137   70   71 1    
   138   71  136 1    
   139   71  137 1    
@<TRIPOS>SUBSTRUCTURE
     1 UNK         1 GROUP             0       ****    0 ROOT    
