@<TRIPOS>MOLECULE
3R136
137   139    1
SMALL
USER_CHARGES


@<TRIPOS>ATOM
      1 CA         29.3083   19.6768   -3.8358 C.3       0 UNK        -0.1979 
      2 C          29.3971   20.9405   -2.9927 C.2       0 UNK         0.4864 
      3 O          30.3103   21.7430   -3.1907 O.2       0 UNK        -0.5359 
      4 N          28.4551   21.1219   -2.0596 N.am      1 UNK        -0.4318 
      5 CA         28.3759   22.2693   -1.1505 C.3       1 UNK         0.0824 
      6 C6         29.1204   21.9964    0.1846 C.3       12 UNK        -0.0944 
      7 S7         29.6461   23.5245    1.0307 S.3       12 UNK        -0.2672 
      8 C8         31.1590   22.9478    1.8593 C.3       12 UNK         0.0333 
      9 C9         31.6159   23.9539    2.9022 C.ar      12 UNK        -0.0807 
     10 C10        32.5951   24.9039    2.5969 C.ar      12 UNK        -0.0894 
     11 C11        32.9852   25.8488    3.5517 C.ar      12 UNK        -0.0804 
     12 C12        32.3935   25.8354    4.8181 C.ar      12 UNK        -0.0824 
     13 C13        31.4096   24.8936    5.1298 C.ar      12 UNK        -0.0762 
     14 C14        31.0339   23.9479    4.1724 C.ar      12 UNK        -0.0782 
     15 C15        30.7231   24.9142    6.4857 C.3       12 UNK         0.0230 
     16 S16        28.9894   25.4526    6.3384 S.3       12 UNK        -0.2608 
     17 C17        29.1727   27.2071    5.8649 C.3       12 UNK        -0.0989 
     18 CA         29.0531   27.4695    4.3382 C.3       5 UNK         0.0716 
     19 N          27.8669   26.8294    3.7572 N.am      5 UNK        -0.4135 
     20 C          27.5164   26.8293    2.4632 C.2       4 UNK         0.5031 
     21 O          28.1294   27.4441    1.5872 O.2       4 UNK        -0.5229 
     22 CA         26.2873   25.9657    2.1125 C.3       4 UNK         0.0329 
     23 CB         25.0572   26.3111    2.9823 C.3       4 UNK        -0.2001 
     24 N          25.9420   25.9812    0.6853 N.am      4 UNK        -0.4303 
     25 C          25.4681   27.0053   -0.0446 C.2       3 UNK         0.5044 
     26 O          25.2088   28.1183    0.4155 O.2       3 UNK        -0.5152 
     27 CA         25.2283   26.7582   -1.5502 C.3       3 UNK         0.0319 
     28 CB         26.2207   27.5636   -2.4040 C.3       3 UNK        -0.2001 
     29 N          25.3193   25.3488   -1.9385 N.am      3 UNK        -0.4354 
     30 C          24.3635   24.4317   -1.7351 C.2       2 UNK         0.4964 
     31 O          23.2612   24.6866   -1.2493 O.2       2 UNK        -0.5047 
     32 CA         24.7001   22.9786   -2.1215 C.3       2 UNK         0.0288 
     33 CB         24.1498   22.6525   -3.5197 C.3       2 UNK        -0.2113 
     34 N          26.1339   22.6586   -2.0810 N.am      2 UNK        -0.4145 
     35 C          26.9003   22.6882   -0.9784 C.2       1 UNK         0.5006 
     36 O          26.4701   23.0261    0.1256 O.2       1 UNK        -0.5103 
     37 C          29.1170   28.9865    4.0719 C.2       5 UNK         0.5055 
     38 O          30.1932   29.5118    3.7790 O.2       5 UNK        -0.5220 
     39 N          27.9636   29.6614    4.1891 N.am      6 UNK        -0.4450 
     40 CA         27.8166   31.1160    4.0831 C.3       6 UNK         0.0367 
     41 CB         26.3665   31.5071    4.4077 C.3       6 UNK        -0.1929 
     42 C          28.2345   31.6928    2.7215 C.2       6 UNK         0.5070 
     43 O          28.7876   32.7915    2.6797 O.2       6 UNK        -0.5237 
     44 N          28.0154   30.9317    1.6403 N.am      7 UNK        -0.4739 
     45 CA         28.4015   31.3017    0.2740 C.3       7 UNK         0.0276 
     46 CB         27.7579   30.3177   -0.7115 C.3       7 UNK        -0.1927 
     47 C          29.9245   31.3645    0.0571 C.2       7 UNK         0.5013 
     48 O          30.3744   32.0611   -0.8531 O.2       7 UNK        -0.5193 
     49 N          30.6820   30.6588    0.9051 N.am      8 UNK        -0.4253 
     50 CA         32.1433   30.6591    0.9474 C.3       8 UNK         0.0242 
     51 CB         32.6221   29.1992    0.8816 C.3       8 UNK        -0.2000 
     52 C          32.6732   31.3844    2.2003 C.2       8 UNK         0.4948 
     53 O          33.8409   31.2029    2.5505 O.2       8 UNK        -0.5275 
     54 N          31.8125   32.1670    2.8762 N.am      9 UNK        -0.4246 
     55 CA         32.0741   32.9306    4.1061 C.3       9 UNK         0.0261 
     56 CB         32.9895   34.1347    3.8005 C.3       9 UNK        -0.1959 
     57 C          32.6020   32.0677    5.2723 C.2       9 UNK         0.5033 
     58 O          33.3986   32.5480    6.0807 O.2       9 UNK        -0.5390 
     59 N          32.1792   30.7953    5.3087 N.am      10 UNK        -0.4215 
     60 CA         32.6108   29.7222    6.2100 C.3       10 UNK         0.0240 
     61 CB         32.2166   30.0300    7.6696 C.3       10 UNK        -0.1982 
     62 C          34.0910   29.3037    6.0721 C.2       10 UNK         0.4970 
     63 O          34.5411   28.4970    6.8861 O.2       10 UNK        -0.4916 
     64 N          34.7965   29.8102    5.0454 N.am      11 UNK        -0.4279 
     65 CA         36.1937   29.5182    4.6666 C.3       11 UNK         0.1003 
     66 C          37.2535   29.5224    5.8120 C.2       11 UNK         0.5709 
     67 N          37.0811   30.3392    6.8447 N.am      11 UNK        -0.7358 
     68 O          38.2590   28.8178    5.7550 O.2       11 UNK        -0.4999 
     69 C69        36.3272   28.3545    3.6357 C.3       12 UNK        -0.0954 
     70 S70        35.5556   26.7691    4.1114 S.3       12 UNK        -0.2268 
     71 C71        33.9926   26.9288    3.1967 C.3       12 UNK         0.0203 
     72 H72        28.4545   19.0591   -3.5579 H         1 UNK         0.0888 
     73 H73        29.2109   19.9350   -4.8900 H         1 UNK         0.0888 
     74 H74        30.2119   19.0803   -3.7130 H         1 UNK         0.0888 
     75 H75        27.7285   20.4276   -1.9430 H         1 UNK         0.3017 
     76 H76        28.8558   23.1221   -1.6360 H         1 UNK         0.0873 
     77 H77        30.0176   21.4081   -0.0154 H         1 UNK         0.0745 
     78 H78        28.5160   21.3930    0.8645 H         1 UNK         0.0745 
     79 H79        31.9400   22.7800    1.1160 H         1 UNK         0.0705 
     80 H80        30.9707   21.9848    2.3368 H         1 UNK         0.0705 
     81 H81        33.0356   24.9206    1.6093 H         1 UNK         0.1334 
     82 H82        32.6903   26.5696    5.5537 H         1 UNK         0.1417 
     83 H83        30.2626   23.2264    4.4065 H         1 UNK         0.1562 
     84 H84        31.2508   25.5623    7.1874 H         1 UNK         0.0748 
     85 H85        30.7476   23.9120    6.9161 H         1 UNK         0.0748 
     86 H86        30.1253   27.5776    6.2450 H         1 UNK         0.0940 
     87 H87        28.4049   27.7617    6.4087 H         1 UNK         0.0940 
     88 H88        29.9179   27.0247    3.8424 H         1 UNK         0.0703 
     89 H89        27.3294   26.2665    4.4004 H         1 UNK         0.3081 
     90 H90        26.5694   24.9336    2.3272 H         1 UNK         0.0719 
     91 H91        24.8008   27.3695    2.9238 H         1 UNK         0.0809 
     92 H92        24.1823   25.7397    2.6717 H         1 UNK         0.0809 
     93 H93        25.2296   26.0768    4.0330 H         1 UNK         0.0809 
     94 H94        26.1194   25.1047    0.2086 H         1 UNK         0.2990 
     95 H95        24.2212   27.1130   -1.7801 H         1 UNK         0.0690 
     96 H96        26.0789   27.3739   -3.4681 H         1 UNK         0.0788 
     97 H97        27.2559   27.3281   -2.1529 H         1 UNK         0.0788 
     98 H98        26.0790   28.6333   -2.2522 H         1 UNK         0.0788 
     99 H99        26.1871   25.0498   -2.3587 H         1 UNK         0.2993 
    100 H100       24.1989   22.3325   -1.3972 H         1 UNK         0.0949 
    101 H101       24.2919   21.6003   -3.7676 H         1 UNK         0.0767 
    102 H102       23.0788   22.8537   -3.5746 H         1 UNK         0.0767 
    103 H103       24.6334   23.2497   -4.2939 H         1 UNK         0.0767 
    104 H104       26.5603   22.3791   -2.9533 H         1 UNK         0.3013 
    105 H105       27.1293   29.1393    4.4144 H         1 UNK         0.3121 
    106 H106       28.4676   31.5643    4.8369 H         1 UNK         0.0774 
    107 H107       26.2337   32.5889    4.3567 H         1 UNK         0.0815 
    108 H108       25.6604   31.0592    3.7072 H         1 UNK         0.0815 
    109 H109       26.0859   31.1966    5.4143 H         1 UNK         0.0815 
    110 H110       27.5914   30.0210    1.7624 H         1 UNK         0.2987 
    111 H111       28.0054   32.2992    0.0709 H         1 UNK         0.0949 
    112 H112       28.0914   29.2943   -0.5338 H         1 UNK         0.0806 
    113 H113       26.6712   30.3354   -0.6282 H         1 UNK         0.0806 
    114 H114       28.0089   30.5710   -1.7424 H         1 UNK         0.0806 
    115 H115       30.2196   30.1325    1.6380 H         1 UNK         0.3010 
    116 H116       32.5533   31.1904    0.0863 H         1 UNK         0.0829 
    117 H117       32.3378   28.7364   -0.0634 H         1 UNK         0.0813 
    118 H118       33.7077   29.1285    0.9596 H         1 UNK         0.0813 
    119 H119       32.1851   28.6041    1.6834 H         1 UNK         0.0813 
    120 H120       30.8661   32.2469    2.5212 H         1 UNK         0.3038 
    121 H121       31.1091   33.3208    4.4331 H         1 UNK         0.0769 
    122 H122       33.0904   34.7833    4.6716 H         1 UNK         0.0811 
    123 H123       32.5867   34.7437    2.9913 H         1 UNK         0.0811 
    124 H124       33.9923   33.8159    3.5137 H         1 UNK         0.0811 
    125 H125       31.5156   30.4964    4.5944 H         1 UNK         0.3204 
    126 H126       32.0405   28.8487    5.8977 H         1 UNK         0.0748 
    127 H127       32.3909   29.1678    8.3144 H         1 UNK         0.0771 
    128 H128       32.7921   30.8611    8.0782 H         1 UNK         0.0771 
    129 H129       31.1591   30.2819    7.7493 H         1 UNK         0.0771 
    130 H130       34.3254   30.4515    4.4168 H         1 UNK         0.2980 
    131 H131       36.4804   30.4075    4.1040 H         1 UNK         0.0545 
    132 H132       37.7667   30.3547    7.5828 H         1 UNK         0.3459 
    133 H133       36.2606   30.9219    6.9017 H         1 UNK         0.3459 
    134 H134       35.8907   28.6771    2.6891 H         1 UNK         0.0616 
    135 H135       37.3753   28.1628    3.4007 H         1 UNK         0.0616 
    136 H136       34.2085   26.9187    2.1273 H         1 UNK         0.0634 
    137 H137       33.5494   27.8998    3.4168 H         1 UNK         0.0634 
@<TRIPOS>BOND
     1    1    2 1    
     2    1   72 1    
     3    1   73 1    
     4    1   74 1    
     5    2    3 2    
     6    2    4 am   BACKBONE|DICT|INTERRES
     7    4    5 1    
     8    4   75 1    
     9    5    6 1    
    10    5   35 1    
    11    5   76 1    
    12    6    7 1    
    13    6   77 1    
    14    6   78 1    
    15    7    8 1    
    16    8    9 1    
    17    8   79 1    
    18    8   80 1    
    19    9   10 ar   
    20    9   14 ar   
    21   10   11 ar   
    22   10   81 1    
    23   11   12 ar   
    24   11   71 1    
    25   12   13 ar   
    26   12   82 1    
    27   13   14 ar   
    28   13   15 1    
    29   14   83 1    
    30   15   16 1    
    31   15   84 1    
    32   15   85 1    
    33   16   17 1    
    34   17   18 1    
    35   17   86 1    
    36   17   87 1    
    37   18   19 1    
    38   18   37 1    
    39   18   88 1    
    40   19   20 am   BACKBONE|DICT|INTERRES
    41   19   89 1    
    42   20   21 2    
    43   20   22 1    
    44   22   23 1    
    45   22   24 1    
    46   22   90 1    
    47   23   91 1    
    48   23   92 1    
    49   23   93 1    
    50   24   25 am   BACKBONE|DICT|INTERRES
    51   24   94 1    
    52   25   26 2    
    53   25   27 1    
    54   27   28 1    
    55   27   29 1    
    56   27   95 1    
    57   28   96 1    
    58   28   97 1    
    59   28   98 1    
    60   29   30 am   BACKBONE|DICT|INTERRES
    61   29   99 1    
    62   30   31 2    
    63   30   32 1    
    64   32   33 1    
    65   32   34 1    
    66   32  100 1    
    67   33  101 1    
    68   33  102 1    
    69   33  103 1    
    70   34   35 am   BACKBONE|DICT|INTERRES
    71   34  104 1    
    72   35   36 2    
    73   37   38 2    
    74   37   39 am   BACKBONE|DICT|INTERRES
    75   39   40 1    
    76   39  105 1    
    77   40   41 1    
    78   40   42 1    
    79   40  106 1    
    80   41  107 1    
    81   41  108 1    
    82   41  109 1    
    83   42   43 2    
    84   42   44 am   BACKBONE|DICT|INTERRES
    85   44   45 1    
    86   44  110 1    
    87   45   46 1    
    88   45   47 1    
    89   45  111 1    
    90   46  112 1    
    91   46  113 1    
    92   46  114 1    
    93   47   48 2    
    94   47   49 am   BACKBONE|DICT|INTERRES
    95   49   50 1    
    96   49  115 1    
    97   50   51 1    
    98   50   52 1    
    99   50  116 1    
   100   51  117 1    
   101   51  118 1    
   102   51  119 1    
   103   52   53 2    
   104   52   54 am   BACKBONE|DICT|INTERRES
   105   54   55 1    
   106   54  120 1    
   107   55   56 1    
   108   55   57 1    
   109   55  121 1    
   110   56  122 1    
   111   56  123 1    
   112   56  124 1    
   113   57   58 2    
   114   57   59 am   BACKBONE|DICT|INTERRES
   115   59   60 1    
   116   59  125 1    
   117   60   61 1    
   118   60   62 1    
   119   60  126 1    
   120   61  127 1    
   121   61  128 1    
   122   61  129 1    
   123   62   63 2    
   124   62   64 am   BACKBONE|DICT|INTERRES
   125   64   65 1    
   126   64  130 1    
   127   65   66 1    
   128   65   69 1    
   129   65  131 1    
   130   66   67 am   BACKBONE|DICT|INTERRES
   131   66   68 2    
   132   67  132 1    
   133   67  133 1    
   134   69   70 1    
   135   69  134 1    
   136   69  135 1    
   137   70   71 1    
   138   71  136 1    
   139   71  137 1    
@<TRIPOS>SUBSTRUCTURE
     1 UNK         1 GROUP             0       ****    0 ROOT    
