@<TRIPOS>MOLECULE
3R136
137   139    1
SMALL
USER_CHARGES


@<TRIPOS>ATOM
      1 CA         32.1765   26.0473   -4.3968 C.3       0 UNK        -0.1979 
      2 C          30.8425   26.1283   -3.6693 C.2       0 UNK         0.4864 
      3 O          29.8060   26.2904   -4.3139 O.2       0 UNK        -0.5359 
      4 N          30.8679   26.0251   -2.3341 N.am      1 UNK        -0.4318 
      5 CA         29.6975   26.0218   -1.4502 C.3       1 UNK         0.0824 
      6 C6         30.0819   26.2128    0.0445 C.3       12 UNK        -0.0944 
      7 S7         31.5479   25.2605    0.5922 S.3       12 UNK        -0.2672 
      8 C8         30.8292   24.0363    1.7424 C.3       12 UNK         0.0333 
      9 C9         30.1579   24.6292    2.9797 C.ar      12 UNK        -0.0807 
     10 C10        30.6290   25.7996    3.5864 C.ar      12 UNK        -0.0894 
     11 C11        30.0023   26.3181    4.7222 C.ar      12 UNK        -0.0804 
     12 C12        28.9058   25.6466    5.2692 C.ar      12 UNK        -0.0824 
     13 C13        28.4271   24.4725    4.6787 C.ar      12 UNK        -0.0762 
     14 C14        29.0570   23.9707    3.5364 C.ar      12 UNK        -0.0782 
     15 C15        27.2171   23.7546    5.2598 C.3       12 UNK         0.0230 
     16 S16        25.7084   24.0774    4.2894 S.3       12 UNK        -0.2608 
     17 C17        25.5393   25.8842    4.4807 C.3       12 UNK        -0.0989 
     18 CA         26.0935   26.6535    3.2516 C.3       5 UNK         0.0716 
     19 N          25.3238   26.3447    2.0405 N.am      5 UNK        -0.4135 
     20 C          25.7256   26.5211    0.7770 C.2       4 UNK         0.5031 
     21 O          26.8031   27.0299    0.4617 O.2       4 UNK        -0.5229 
     22 CA         24.7707   26.0147   -0.3106 C.3       4 UNK         0.0329 
     23 CB         24.8543   26.8563   -1.5973 C.3       4 UNK        -0.2001 
     24 N          25.0964   24.6216   -0.6120 N.am      4 UNK        -0.4303 
     25 C          24.5737   23.5679    0.0326 C.2       3 UNK         0.5044 
     26 O          23.7290   23.6753    0.9230 O.2       3 UNK        -0.5152 
     27 CA         25.0328   22.1560   -0.3821 C.3       3 UNK         0.0319 
     28 CB         23.9465   21.4680   -1.2256 C.3       3 UNK        -0.2001 
     29 N          26.2915   22.1394   -1.1302 N.am      3 UNK        -0.4354 
     30 C          27.5085   22.2316   -0.5787 C.2       2 UNK         0.4964 
     31 O          27.7062   22.2976    0.6347 O.2       2 UNK        -0.5047 
     32 CA         28.7186   22.2808   -1.5362 C.3       2 UNK         0.0288 
     33 CB         28.3908   21.9010   -2.9992 C.3       2 UNK        -0.2113 
     34 N          29.3844   23.5878   -1.4832 N.am      2 UNK        -0.4145 
     35 C          28.8073   24.7840   -1.6756 C.2       1 UNK         0.5006 
     36 O          27.6366   24.9291   -2.0316 O.2       1 UNK        -0.5103 
     37 C          26.2307   28.1712    3.5198 C.2       5 UNK         0.5055 
     38 O          25.8814   28.6429    4.6041 O.2       5 UNK        -0.5220 
     39 N          26.7457   28.9111    2.5339 N.am      6 UNK        -0.4450 
     40 CA         27.1571   30.3059    2.6533 C.3       6 UNK         0.0367 
     41 CB         26.9428   31.0088    1.3032 C.3       6 UNK        -0.1929 
     42 C          28.6371   30.3571    3.0553 C.2       6 UNK         0.5070 
     43 O          29.4320   29.5592    2.5528 O.2       6 UNK        -0.5237 
     44 N          28.9878   31.3050    3.9312 N.am      7 UNK        -0.4739 
     45 CA         30.3725   31.5725    4.3206 C.3       7 UNK         0.0276 
     46 CB         30.3931   32.3122    5.6678 C.3       7 UNK        -0.1927 
     47 C          31.0958   32.3882    3.2371 C.2       7 UNK         0.5013 
     48 O          30.4867   33.2695    2.6242 O.2       7 UNK        -0.5193 
     49 N          32.3833   32.0961    3.0462 N.am      8 UNK        -0.4253 
     50 CA         33.2813   32.7558    2.1025 C.3       8 UNK         0.0242 
     51 CB         33.0153   32.2524    0.6649 C.3       8 UNK        -0.2000 
     52 C          34.7078   32.5184    2.6145 C.2       8 UNK         0.4948 
     53 O          35.0103   32.9245    3.7378 O.2       8 UNK        -0.5275 
     54 N          35.5458   31.8307    1.8247 N.am      9 UNK        -0.4246 
     55 CA         36.8257   31.2748    2.2788 C.3       9 UNK         0.0261 
     56 CB         37.6492   30.8058    1.0683 C.3       9 UNK        -0.1959 
     57 C          36.6168   30.1237    3.2813 C.2       9 UNK         0.5033 
     58 O          37.3620   30.0197    4.2568 O.2       9 UNK        -0.5390 
     59 N          35.5788   29.3100    3.0413 N.am      10 UNK        -0.4215 
     60 CA         35.0438   28.3406    3.9940 C.3       10 UNK         0.0240 
     61 CB         34.2201   27.2881    3.2348 C.3       10 UNK        -0.1982 
     62 C          34.1660   29.0620    5.0275 C.2       10 UNK         0.4970 
     63 O          33.4483   29.9968    4.6635 O.2       10 UNK        -0.4916 
     64 N          34.2265   28.5984    6.2805 N.am      11 UNK        -0.4279 
     65 CA         33.4862   29.1315    7.4405 C.3       11 UNK         0.1003 
     66 C          33.9202   30.5603    7.8948 C.2       11 UNK         0.5709 
     67 N          35.0441   31.0933    7.4302 N.am      11 UNK        -0.7358 
     68 O          33.2469   31.1861    8.7103 O.2       11 UNK        -0.4999 
     69 C69        31.9397   28.9989    7.3092 C.3       12 UNK        -0.0954 
     70 S70        31.3910   27.3080    6.8973 S.3       12 UNK        -0.2268 
     71 C71        30.4974   27.6140    5.3440 C.3       12 UNK         0.0203 
     72 H72        32.3510   26.9615   -4.9637 H         1 UNK         0.0888 
     73 H73        33.0099   25.9118   -3.7076 H         1 UNK         0.0888 
     74 H74        32.1734   25.2093   -5.0934 H         1 UNK         0.0888 
     75 H75        31.7524   25.8981   -1.8615 H         1 UNK         0.3017 
     76 H76        29.0855   26.8828   -1.7296 H         1 UNK         0.0873 
     77 H77        30.3106   27.2658    0.2169 H         1 UNK         0.0745 
     78 H78        29.2341   26.0009    0.6986 H         1 UNK         0.0745 
     79 H79        31.6254   23.3688    2.0739 H         1 UNK         0.0705 
     80 H80        30.1203   23.4172    1.1933 H         1 UNK         0.0705 
     81 H81        31.4786   26.3181    3.1681 H         1 UNK         0.1334 
     82 H82        28.4222   26.0464    6.1500 H         1 UNK         0.1417 
     83 H83        28.6790   23.0676    3.0749 H         1 UNK         0.1562 
     84 H84        27.0519   24.0494    6.2974 H         1 UNK         0.0748 
     85 H85        27.4041   22.6799    5.2752 H         1 UNK         0.0748 
     86 H86        26.0464   26.1843    5.3993 H         1 UNK         0.0940 
     87 H87        24.4853   26.1217    4.6361 H         1 UNK         0.0940 
     88 H88        27.1123   26.3045    3.0738 H         1 UNK         0.0703 
     89 H89        24.4405   25.8787    2.1941 H         1 UNK         0.3081 
     90 H90        23.7457   26.0885    0.0597 H         1 UNK         0.0719 
     91 H91        25.8532   26.8446   -2.0337 H         1 UNK         0.0809 
     92 H92        24.1567   26.4942   -2.3525 H         1 UNK         0.0809 
     93 H93        24.6029   27.8981   -1.3950 H         1 UNK         0.0809 
     94 H94        25.8618   24.4794   -1.2652 H         1 UNK         0.2990 
     95 H95        25.1649   21.5772    0.5348 H         1 UNK         0.0690 
     96 H96        24.2219   20.4412   -1.4670 H         1 UNK         0.0788 
     97 H97        23.7657   21.9977   -2.1619 H         1 UNK         0.0788 
     98 H98        22.9992   21.4285   -0.6857 H         1 UNK         0.0788 
     99 H99        26.2242   22.1132   -2.1376 H         1 UNK         0.2993 
    100 H100       29.4332   21.5488   -1.1566 H         1 UNK         0.0949 
    101 H101       27.7155   22.6133   -3.4745 H         1 UNK         0.0767 
    102 H102       29.2988   21.8647   -3.6015 H         1 UNK         0.0767 
    103 H103       27.9322   20.9128   -3.0580 H         1 UNK         0.0767 
    104 H104       30.3495   23.5807   -1.1838 H         1 UNK         0.3013 
    105 H105       27.0281   28.4224    1.6863 H         1 UNK         0.3121 
    106 H106       26.5539   30.8109    3.4111 H         1 UNK         0.0774 
    107 H107       27.2425   32.0563    1.3572 H         1 UNK         0.0815 
    108 H108       27.5274   30.5427    0.5086 H         1 UNK         0.0815 
    109 H109       25.8943   30.9847    1.0059 H         1 UNK         0.0815 
    110 H110       28.2902   31.9571    4.2602 H         1 UNK         0.2987 
    111 H111       30.8875   30.6179    4.4432 H         1 UNK         0.0949 
    112 H112       29.9072   33.2866    5.6026 H         1 UNK         0.0806 
    113 H113       29.8912   31.7361    6.4455 H         1 UNK         0.0806 
    114 H114       31.4183   32.4793    6.0021 H         1 UNK         0.0806 
    115 H115       32.8182   31.3905    3.6420 H         1 UNK         0.3010 
    116 H116       33.1064   33.8332    2.1371 H         1 UNK         0.0829 
    117 H117       32.0034   32.5023    0.3453 H         1 UNK         0.0813 
    118 H118       33.6924   32.7184   -0.0522 H         1 UNK         0.0813 
    119 H119       33.1220   31.1700    0.5825 H         1 UNK         0.0813 
    120 H120       35.2328   31.5697    0.9007 H         1 UNK         0.3038 
    121 H121       37.3832   32.0647    2.7871 H         1 UNK         0.0769 
    122 H122       38.6131   30.4057    1.3864 H         1 UNK         0.0811 
    123 H123       37.8527   31.6298    0.3841 H         1 UNK         0.0811 
    124 H124       37.1402   30.0208    0.5076 H         1 UNK         0.0811 
    125 H125       35.0068   29.4990    2.2327 H         1 UNK         0.3204 
    126 H126       35.8724   27.8419    4.5017 H         1 UNK         0.0748 
    127 H127       33.3773   27.7376    2.7075 H         1 UNK         0.0771 
    128 H128       34.8293   26.7589    2.5017 H         1 UNK         0.0771 
    129 H129       33.8172   26.5407    3.9199 H         1 UNK         0.0771 
    130 H130       34.8441   27.8261    6.4841 H         1 UNK         0.2980 
    131 H131       33.7823   28.4911    8.2718 H         1 UNK         0.0545 
    132 H132       35.3159   32.0133    7.7380 H         1 UNK         0.3459 
    133 H133       35.6079   30.5993    6.7571 H         1 UNK         0.3459 
    134 H134       31.4556   29.2699    8.2489 H         1 UNK         0.0616 
    135 H135       31.5606   29.7017    6.5676 H         1 UNK         0.0616 
    136 H136       31.1527   28.1421    4.6493 H         1 UNK         0.0634 
    137 H137       29.6508   28.2756    5.5344 H         1 UNK         0.0634 
@<TRIPOS>BOND
     1    1    2 1    
     2    1   72 1    
     3    1   73 1    
     4    1   74 1    
     5    2    3 2    
     6    2    4 am   BACKBONE|DICT|INTERRES
     7    4    5 1    
     8    4   75 1    
     9    5    6 1    
    10    5   35 1    
    11    5   76 1    
    12    6    7 1    
    13    6   77 1    
    14    6   78 1    
    15    7    8 1    
    16    8    9 1    
    17    8   79 1    
    18    8   80 1    
    19    9   10 ar   
    20    9   14 ar   
    21   10   11 ar   
    22   10   81 1    
    23   11   12 ar   
    24   11   71 1    
    25   12   13 ar   
    26   12   82 1    
    27   13   14 ar   
    28   13   15 1    
    29   14   83 1    
    30   15   16 1    
    31   15   84 1    
    32   15   85 1    
    33   16   17 1    
    34   17   18 1    
    35   17   86 1    
    36   17   87 1    
    37   18   19 1    
    38   18   37 1    
    39   18   88 1    
    40   19   20 am   BACKBONE|DICT|INTERRES
    41   19   89 1    
    42   20   21 2    
    43   20   22 1    
    44   22   23 1    
    45   22   24 1    
    46   22   90 1    
    47   23   91 1    
    48   23   92 1    
    49   23   93 1    
    50   24   25 am   BACKBONE|DICT|INTERRES
    51   24   94 1    
    52   25   26 2    
    53   25   27 1    
    54   27   28 1    
    55   27   29 1    
    56   27   95 1    
    57   28   96 1    
    58   28   97 1    
    59   28   98 1    
    60   29   30 am   BACKBONE|DICT|INTERRES
    61   29   99 1    
    62   30   31 2    
    63   30   32 1    
    64   32   33 1    
    65   32   34 1    
    66   32  100 1    
    67   33  101 1    
    68   33  102 1    
    69   33  103 1    
    70   34   35 am   BACKBONE|DICT|INTERRES
    71   34  104 1    
    72   35   36 2    
    73   37   38 2    
    74   37   39 am   BACKBONE|DICT|INTERRES
    75   39   40 1    
    76   39  105 1    
    77   40   41 1    
    78   40   42 1    
    79   40  106 1    
    80   41  107 1    
    81   41  108 1    
    82   41  109 1    
    83   42   43 2    
    84   42   44 am   BACKBONE|DICT|INTERRES
    85   44   45 1    
    86   44  110 1    
    87   45   46 1    
    88   45   47 1    
    89   45  111 1    
    90   46  112 1    
    91   46  113 1    
    92   46  114 1    
    93   47   48 2    
    94   47   49 am   BACKBONE|DICT|INTERRES
    95   49   50 1    
    96   49  115 1    
    97   50   51 1    
    98   50   52 1    
    99   50  116 1    
   100   51  117 1    
   101   51  118 1    
   102   51  119 1    
   103   52   53 2    
   104   52   54 am   BACKBONE|DICT|INTERRES
   105   54   55 1    
   106   54  120 1    
   107   55   56 1    
   108   55   57 1    
   109   55  121 1    
   110   56  122 1    
   111   56  123 1    
   112   56  124 1    
   113   57   58 2    
   114   57   59 am   BACKBONE|DICT|INTERRES
   115   59   60 1    
   116   59  125 1    
   117   60   61 1    
   118   60   62 1    
   119   60  126 1    
   120   61  127 1    
   121   61  128 1    
   122   61  129 1    
   123   62   63 2    
   124   62   64 am   BACKBONE|DICT|INTERRES
   125   64   65 1    
   126   64  130 1    
   127   65   66 1    
   128   65   69 1    
   129   65  131 1    
   130   66   67 am   BACKBONE|DICT|INTERRES
   131   66   68 2    
   132   67  132 1    
   133   67  133 1    
   134   69   70 1    
   135   69  134 1    
   136   69  135 1    
   137   70   71 1    
   138   71  136 1    
   139   71  137 1    
@<TRIPOS>SUBSTRUCTURE
     1 UNK         1 GROUP             0       ****    0 ROOT    
