@<TRIPOS>MOLECULE
3R136
137   139    1
SMALL
USER_CHARGES


@<TRIPOS>ATOM
      1 CA         29.9102   22.2217    3.6994 C.3       0 UNK        -0.1979 
      2 C          30.2171   20.9221    2.9528 C.2       0 UNK         0.4864 
      3 O          31.0290   20.1449    3.4523 O.2       0 UNK        -0.5359 
      4 N          29.6325   20.6110    1.7826 N.am      1 UNK        -0.4318 
      5 CA         28.6497   21.3381    0.9609 C.3       1 UNK         0.0824 
      6 C6         29.2453   22.5994    0.2661 C.3       12 UNK        -0.0944 
      7 S7         30.3868   22.1678   -1.0943 S.3       12 UNK        -0.2672 
      8 C8         32.0409   22.2985   -0.3362 C.3       12 UNK         0.0333 
      9 C9         32.3179   23.6882    0.2180 C.ar      12 UNK        -0.0807 
     10 C10        32.3695   23.8862    1.5995 C.ar      12 UNK        -0.0894 
     11 C11        32.5601   25.1602    2.1383 C.ar      12 UNK        -0.0804 
     12 C12        32.7191   26.2430    1.2641 C.ar      12 UNK        -0.0824 
     13 C13        32.6996   26.0596   -0.1230 C.ar      12 UNK        -0.0762 
     14 C14        32.5059   24.7749   -0.6409 C.ar      12 UNK        -0.0782 
     15 C15        32.9064   27.2572   -1.0461 C.3       12 UNK         0.0230 
     16 S16        31.6303   27.4559   -2.3392 S.3       12 UNK        -0.2608 
     17 C17        30.0488   27.3269   -1.4383 C.3       12 UNK        -0.0989 
     18 CA         29.6078   28.6399   -0.7333 C.3       5 UNK         0.0716 
     19 N          28.1511   28.8091   -0.7931 N.am      5 UNK        -0.4135 
     20 C          27.4261   29.7594   -0.1843 C.2       4 UNK         0.5031 
     21 O          27.9164   30.7200    0.4077 O.2       4 UNK        -0.5229 
     22 CA         25.8942   29.5922   -0.1776 C.3       4 UNK         0.0329 
     23 CB         25.2416   30.6367   -1.0974 C.3       4 UNK        -0.2001 
     24 N          25.3993   28.2558   -0.5387 N.am      4 UNK        -0.4303 
     25 C          25.7001   27.0990    0.0699 C.2       3 UNK         0.5044 
     26 O          26.5001   26.9920    1.0056 O.2       3 UNK        -0.5152 
     27 CA         25.0374   25.8490   -0.5195 C.3       3 UNK         0.0319 
     28 CB         25.6097   25.5247   -1.9144 C.3       3 UNK        -0.2001 
     29 N          25.2607   24.7159    0.3722 N.am      3 UNK        -0.4354 
     30 C          24.4890   23.6260    0.4495 C.2       2 UNK         0.4964 
     31 O          23.4625   23.4642   -0.2128 O.2       2 UNK        -0.5047 
     32 CA         24.9995   22.5103    1.3708 C.3       2 UNK         0.0288 
     33 CB         24.0685   21.2807    1.4203 C.3       2 UNK        -0.2113 
     34 N          26.3303   22.1205    0.9082 N.am      2 UNK        -0.4145 
     35 C          27.3005   21.6086    1.6731 C.2       1 UNK         0.5006 
     36 O          27.1424   21.3398    2.8661 O.2       1 UNK        -0.5103 
     37 C          30.1363   28.6763    0.7164 C.2       5 UNK         0.5055 
     38 O          31.1192   29.3657    0.9900 O.2       5 UNK        -0.5220 
     39 N          29.4442   27.9671    1.6227 N.am      6 UNK        -0.4450 
     40 CA         29.7889   27.8854    3.0421 C.3       6 UNK         0.0367 
     41 CB         28.9282   26.8082    3.7195 C.3       6 UNK        -0.1929 
     42 C          29.6678   29.2293    3.7751 C.2       6 UNK         0.5070 
     43 O          30.5043   29.5298    4.6267 O.2       6 UNK        -0.5237 
     44 N          28.6509   30.0221    3.4121 N.am      7 UNK        -0.4739 
     45 CA         28.4370   31.3741    3.9271 C.3       7 UNK         0.0276 
     46 CB         26.9875   31.8094    3.6571 C.3       7 UNK        -0.1927 
     47 C          29.4339   32.3770    3.3273 C.2       7 UNK         0.5013 
     48 O          29.9709   33.2023    4.0652 O.2       7 UNK        -0.5193 
     49 N          29.6810   32.2710    2.0133 N.am      8 UNK        -0.4253 
     50 CA         30.6182   33.1080    1.2598 C.3       8 UNK         0.0242 
     51 CB         30.4809   32.8129   -0.2427 C.3       8 UNK        -0.2000 
     52 C          32.0763   32.9420    1.7172 C.2       8 UNK         0.4948 
     53 O          32.7701   33.9437    1.8964 O.2       8 UNK        -0.5275 
     54 N          32.5073   31.6893    1.9201 N.am      9 UNK        -0.4246 
     55 CA         33.8320   31.3506    2.4480 C.3       9 UNK         0.0261 
     56 CB         34.1605   29.8982    2.0761 C.3       9 UNK        -0.1959 
     57 C          33.9491   31.5413    3.9712 C.2       9 UNK         0.5033 
     58 O          35.0723   31.5987    4.4738 O.2       9 UNK        -0.5390 
     59 N          32.8049   31.6163    4.6690 N.am      10 UNK        -0.4215 
     60 CA         32.6432   31.6852    6.1250 C.3       10 UNK         0.0240 
     61 CB         33.1917   33.0161    6.6829 C.3       10 UNK        -0.1982 
     62 C          33.2237   30.4401    6.8219 C.2       10 UNK         0.4970 
     63 O          34.0566   30.5631    7.7229 O.2       10 UNK        -0.4916 
     64 N          32.7831   29.2612    6.3651 N.am      11 UNK        -0.4279 
     65 CA         33.1711   27.9488    6.9018 C.3       11 UNK         0.1003 
     66 C          32.7160   27.7475    8.3741 C.2       11 UNK         0.5709 
     67 N          33.5034   27.0429    9.1756 N.am      11 UNK        -0.7358 
     68 O          31.6411   28.1847    8.7825 O.2       11 UNK        -0.4999 
     69 C69        32.6457   26.7918    6.0142 C.3       12 UNK        -0.0954 
     70 S70        33.3276   26.8141    4.3247 S.3       12 UNK        -0.2268 
     71 C71        32.5244   25.3158    3.6601 C.3       12 UNK         0.0203 
     72 H72        30.8273   22.6560    4.0948 H         1 UNK         0.0888 
     73 H73        29.4199   22.9773    3.0933 H         1 UNK         0.0888 
     74 H74        29.2596   22.0067    4.5466 H         1 UNK         0.0888 
     75 H75        29.8840   19.7157    1.3886 H         1 UNK         0.3017 
     76 H76        28.3858   20.6319    0.1714 H         1 UNK         0.0873 
     77 H77        28.4654   23.2068   -0.1949 H         1 UNK         0.0745 
     78 H78        29.7366   23.2656    0.9707 H         1 UNK         0.0745 
     79 H79        32.7929   22.0561   -1.0883 H         1 UNK         0.0705 
     80 H80        32.1356   21.5409    0.4431 H         1 UNK         0.0705 
     81 H81        32.2403   23.0420    2.2605 H         1 UNK         0.1334 
     82 H82        32.8494   27.2391    1.6569 H         1 UNK         0.1417 
     83 H83        32.4762   24.6244   -1.7117 H         1 UNK         0.1562 
     84 H84        33.8766   27.1535   -1.5333 H         1 UNK         0.0748 
     85 H85        32.9598   28.1830   -0.4736 H         1 UNK         0.0748 
     86 H86        30.0650   26.4710   -0.7601 H         1 UNK         0.0940 
     87 H87        29.3173   27.0544   -2.2009 H         1 UNK         0.0940 
     88 H88        30.0334   29.4942   -1.2631 H         1 UNK         0.0703 
     89 H89        27.6390   28.0754   -1.2574 H         1 UNK         0.3081 
     90 H90        25.5660   29.7885    0.8451 H         1 UNK         0.0719 
     91 H91        25.5050   30.4745   -2.1434 H         1 UNK         0.0809 
     92 H92        24.1547   30.6157   -1.0158 H         1 UNK         0.0809 
     93 H93        25.5625   31.6459   -0.8338 H         1 UNK         0.0809 
     94 H94        24.7441   28.2261   -1.3073 H         1 UNK         0.2990 
     95 H95        23.9653   26.0434   -0.5966 H         1 UNK         0.0690 
     96 H96        26.6825   25.3307   -1.8742 H         1 UNK         0.0788 
     97 H97        25.4504   26.3456   -2.6144 H         1 UNK         0.0788 
     98 H98        25.1300   24.6454   -2.3448 H         1 UNK         0.0788 
     99 H99        26.0533   24.8251    0.9933 H         1 UNK         0.2993 
    100 H100       25.0706   22.9333    2.3757 H         1 UNK         0.0949 
    101 H101       23.9738   20.8075    0.4422 H         1 UNK         0.0767 
    102 H102       24.4379   20.5308    2.1200 H         1 UNK         0.0767 
    103 H103       23.0669   21.5618    1.7483 H         1 UNK         0.0767 
    104 H104       26.5172   22.3057   -0.0684 H         1 UNK         0.3013 
    105 H105       28.6051   27.4792    1.3288 H         1 UNK         0.3121 
    106 H106       30.8325   27.5821    3.1059 H         1 UNK         0.0774 
    107 H107       29.1843   26.7113    4.7754 H         1 UNK         0.0815 
    108 H108       27.8650   27.0450    3.6603 H         1 UNK         0.0815 
    109 H109       29.0794   25.8322    3.2580 H         1 UNK         0.0815 
    110 H110       28.0420   29.7140    2.6677 H         1 UNK         0.2987 
    111 H111       28.5907   31.3590    5.0088 H         1 UNK         0.0949 
    112 H112       26.7626   31.8439    2.5906 H         1 UNK         0.0806 
    113 H113       26.2759   31.1311    4.1280 H         1 UNK         0.0806 
    114 H114       26.8001   32.8054    4.0607 H         1 UNK         0.0806 
    115 H115       29.1493   31.5880    1.4765 H         1 UNK         0.3010 
    116 H116       30.3357   34.1492    1.4289 H         1 UNK         0.0829 
    117 H117       31.1473   33.4475   -0.8283 H         1 UNK         0.0813 
    118 H118       30.7281   31.7766   -0.4748 H         1 UNK         0.0813 
    119 H119       29.4649   32.9988   -0.5917 H         1 UNK         0.0813 
    120 H120       31.8945   30.9089    1.6860 H         1 UNK         0.3038 
    121 H121       34.5729   31.9993    1.9759 H         1 UNK         0.0769 
    122 H122       35.1578   29.6183    2.4178 H         1 UNK         0.0811 
    123 H123       34.1293   29.7458    0.9977 H         1 UNK         0.0811 
    124 H124       33.4524   29.2114    2.5379 H         1 UNK         0.0811 
    125 H125       31.9418   31.5346    4.1488 H         1 UNK         0.3204 
    126 H126       31.5684   31.6697    6.3129 H         1 UNK         0.0748 
    127 H127       32.9772   33.1088    7.7482 H         1 UNK         0.0771 
    128 H128       34.2723   33.0960    6.5613 H         1 UNK         0.0771 
    129 H129       32.7338   33.8705    6.1841 H         1 UNK         0.0771 
    130 H130       32.0556   29.2595    5.6544 H         1 UNK         0.2980 
    131 H131       34.2623   27.9141    6.8877 H         1 UNK         0.0545 
    132 H132       33.2181   26.8882   10.1300 H         1 UNK         0.3459 
    133 H133       34.3807   26.6688    8.8485 H         1 UNK         0.3459 
    134 H134       32.8986   25.8262    6.4568 H         1 UNK         0.0616 
    135 H135       31.5564   26.8281    5.9513 H         1 UNK         0.0616 
    136 H136       32.9962   24.4503    4.1280 H         1 UNK         0.0634 
    137 H137       31.4804   25.3043    3.9734 H         1 UNK         0.0634 
@<TRIPOS>BOND
     1    1    2 1    
     2    1   72 1    
     3    1   73 1    
     4    1   74 1    
     5    2    3 2    
     6    2    4 am   BACKBONE|DICT|INTERRES
     7    4    5 1    
     8    4   75 1    
     9    5    6 1    
    10    5   35 1    
    11    5   76 1    
    12    6    7 1    
    13    6   77 1    
    14    6   78 1    
    15    7    8 1    
    16    8    9 1    
    17    8   79 1    
    18    8   80 1    
    19    9   10 ar   
    20    9   14 ar   
    21   10   11 ar   
    22   10   81 1    
    23   11   12 ar   
    24   11   71 1    
    25   12   13 ar   
    26   12   82 1    
    27   13   14 ar   
    28   13   15 1    
    29   14   83 1    
    30   15   16 1    
    31   15   84 1    
    32   15   85 1    
    33   16   17 1    
    34   17   18 1    
    35   17   86 1    
    36   17   87 1    
    37   18   19 1    
    38   18   37 1    
    39   18   88 1    
    40   19   20 am   BACKBONE|DICT|INTERRES
    41   19   89 1    
    42   20   21 2    
    43   20   22 1    
    44   22   23 1    
    45   22   24 1    
    46   22   90 1    
    47   23   91 1    
    48   23   92 1    
    49   23   93 1    
    50   24   25 am   BACKBONE|DICT|INTERRES
    51   24   94 1    
    52   25   26 2    
    53   25   27 1    
    54   27   28 1    
    55   27   29 1    
    56   27   95 1    
    57   28   96 1    
    58   28   97 1    
    59   28   98 1    
    60   29   30 am   BACKBONE|DICT|INTERRES
    61   29   99 1    
    62   30   31 2    
    63   30   32 1    
    64   32   33 1    
    65   32   34 1    
    66   32  100 1    
    67   33  101 1    
    68   33  102 1    
    69   33  103 1    
    70   34   35 am   BACKBONE|DICT|INTERRES
    71   34  104 1    
    72   35   36 2    
    73   37   38 2    
    74   37   39 am   BACKBONE|DICT|INTERRES
    75   39   40 1    
    76   39  105 1    
    77   40   41 1    
    78   40   42 1    
    79   40  106 1    
    80   41  107 1    
    81   41  108 1    
    82   41  109 1    
    83   42   43 2    
    84   42   44 am   BACKBONE|DICT|INTERRES
    85   44   45 1    
    86   44  110 1    
    87   45   46 1    
    88   45   47 1    
    89   45  111 1    
    90   46  112 1    
    91   46  113 1    
    92   46  114 1    
    93   47   48 2    
    94   47   49 am   BACKBONE|DICT|INTERRES
    95   49   50 1    
    96   49  115 1    
    97   50   51 1    
    98   50   52 1    
    99   50  116 1    
   100   51  117 1    
   101   51  118 1    
   102   51  119 1    
   103   52   53 2    
   104   52   54 am   BACKBONE|DICT|INTERRES
   105   54   55 1    
   106   54  120 1    
   107   55   56 1    
   108   55   57 1    
   109   55  121 1    
   110   56  122 1    
   111   56  123 1    
   112   56  124 1    
   113   57   58 2    
   114   57   59 am   BACKBONE|DICT|INTERRES
   115   59   60 1    
   116   59  125 1    
   117   60   61 1    
   118   60   62 1    
   119   60  126 1    
   120   61  127 1    
   121   61  128 1    
   122   61  129 1    
   123   62   63 2    
   124   62   64 am   BACKBONE|DICT|INTERRES
   125   64   65 1    
   126   64  130 1    
   127   65   66 1    
   128   65   69 1    
   129   65  131 1    
   130   66   67 am   BACKBONE|DICT|INTERRES
   131   66   68 2    
   132   67  132 1    
   133   67  133 1    
   134   69   70 1    
   135   69  134 1    
   136   69  135 1    
   137   70   71 1    
   138   71  136 1    
   139   71  137 1    
@<TRIPOS>SUBSTRUCTURE
     1 UNK         1 GROUP             0       ****    0 ROOT    
