@<TRIPOS>MOLECULE
3R136
137   139    1
SMALL
USER_CHARGES


@<TRIPOS>ATOM
      1 CA         27.5697   27.1177    6.3624 C.3       0 UNK        -0.1979 
      2 C          27.9855   25.8016    5.7236 C.2       0 UNK         0.4864 
      3 O          27.2834   24.8023    5.8812 O.2       0 UNK        -0.5359 
      4 N          29.1219   25.7920    5.0118 N.am      1 UNK        -0.4318 
      5 CA         29.6780   24.6239    4.3181 C.3       1 UNK         0.0824 
      6 C6         31.1036   24.9173    3.7919 C.3       12 UNK        -0.0944 
      7 S7         32.1011   23.4197    3.4895 S.3       12 UNK        -0.2672 
      8 C8         31.9966   23.2368    1.6719 C.3       12 UNK         0.0333 
      9 C9         32.4415   24.4671    0.8818 C.ar      12 UNK        -0.0807 
     10 C10        33.5254   25.2491    1.2978 C.ar      12 UNK        -0.0894 
     11 C11        33.8970   26.3912    0.5838 C.ar      12 UNK        -0.0804 
     12 C12        33.1930   26.7411   -0.5718 C.ar      12 UNK        -0.0824 
     13 C13        32.1166   25.9620   -1.0085 C.ar      12 UNK        -0.0762 
     14 C14        31.7518   24.8243   -0.2817 C.ar      12 UNK        -0.0782 
     15 C15        31.3367   26.3592   -2.2535 C.3       12 UNK         0.0230 
     16 S16        29.7221   27.0699   -1.8115 S.3       12 UNK        -0.2608 
     17 C17        29.2669   27.8982   -3.3703 C.3       12 UNK        -0.0989 
     18 CA         27.8627   28.5544   -3.3438 C.3       5 UNK         0.0716 
     19 N          26.8080   27.5637   -3.1027 N.am      5 UNK        -0.4135 
     20 C          25.5965   27.5865   -3.6730 C.2       4 UNK         0.5031 
     21 O          25.2507   28.4003   -4.5302 O.2       4 UNK        -0.5229 
     22 CA         24.5888   26.5349   -3.1795 C.3       4 UNK         0.0329 
     23 CB         24.8734   25.1653   -3.8179 C.3       4 UNK        -0.2001 
     24 N          24.5598   26.4008   -1.7191 N.am      4 UNK        -0.4303 
     25 C          24.1941   27.3666   -0.8614 C.2       3 UNK         0.5044 
     26 O          23.8615   28.4994   -1.2071 O.2       3 UNK        -0.5152 
     27 CA         24.2079   27.0233    0.6381 C.3       3 UNK         0.0319 
     28 CB         22.7897   26.6796    1.1213 C.3       3 UNK        -0.2001 
     29 N          25.1105   25.9182    0.9694 N.am      3 UNK        -0.4354 
     30 C          26.4429   26.0256    1.0385 C.2       2 UNK         0.4964 
     31 O          27.0653   27.0710    0.8336 O.2       2 UNK        -0.5047 
     32 CA         27.2074   24.7403    1.3609 C.3       2 UNK         0.0288 
     33 CB         27.9047   24.1867    0.1051 C.3       2 UNK        -0.2113 
     34 N          28.1776   25.0266    2.4113 N.am      2 UNK        -0.4145 
     35 C          28.7516   24.1056    3.1967 C.2       1 UNK         0.5006 
     36 O          28.5554   22.8938    3.0839 O.2       1 UNK        -0.5103 
     37 C          27.7879   29.7377   -2.3498 C.2       5 UNK         0.5055 
     38 O          28.4895   30.7299   -2.5539 O.2       5 UNK        -0.5220 
     39 N          26.9508   29.6120   -1.3059 N.am      6 UNK        -0.4450 
     40 CA         26.7614   30.5349   -0.1814 C.3       6 UNK         0.0367 
     41 CB         26.1498   31.8707   -0.6545 C.3       6 UNK        -0.1929 
     42 C          28.0491   30.7084    0.6457 C.2       6 UNK         0.5070 
     43 O          28.4540   31.8350    0.9412 O.2       6 UNK        -0.5237 
     44 N          28.6805   29.5786    0.9866 N.am      7 UNK        -0.4739 
     45 CA         29.8986   29.5239    1.7935 C.3       7 UNK         0.0276 
     46 CB         30.5656   28.1536    1.6025 C.3       7 UNK        -0.1927 
     47 C          29.6242   29.7764    3.2829 C.2       7 UNK         0.5013 
     48 O          28.5121   29.5418    3.7632 O.2       7 UNK        -0.5193 
     49 N          30.6768   30.1984    3.9929 N.am      8 UNK        -0.4253 
     50 CA         30.7253   30.2832    5.4531 C.3       8 UNK         0.0242 
     51 CB         31.9353   31.1487    5.8479 C.3       8 UNK        -0.2000 
     52 C          30.8316   28.8846    6.0865 C.2       8 UNK         0.4948 
     53 O          31.0116   27.8905    5.3761 O.2       8 UNK        -0.5275 
     54 N          30.7509   28.8171    7.4213 N.am      9 UNK        -0.4246 
     55 CA         30.9935   27.6051    8.2127 C.3       9 UNK         0.0261 
     56 CB         30.4020   27.7986    9.6212 C.3       9 UNK        -0.1959 
     57 C          32.4987   27.2652    8.2377 C.2       9 UNK         0.5033 
     58 O          33.1569   27.4695    9.2594 O.2       9 UNK        -0.5390 
     59 N          32.9911   26.7989    7.0810 N.am      10 UNK        -0.4215 
     60 CA         34.3824   26.6607    6.6381 C.3       10 UNK         0.0240 
     61 CB         35.2835   25.9406    7.6613 C.3       10 UNK        -0.1982 
     62 C          34.9416   28.0333    6.2274 C.2       10 UNK         0.4970 
     63 O          34.9481   28.9659    7.0333 O.2       10 UNK        -0.4916 
     64 N          35.3695   28.1373    4.9645 N.am      11 UNK        -0.4279 
     65 CA         35.8789   29.3722    4.3489 C.3       11 UNK         0.1003 
     66 C          37.2186   29.8532    4.9713 C.2       11 UNK         0.5709 
     67 N          37.4414   31.1591    5.0322 N.am      11 UNK        -0.7358 
     68 O          38.0718   29.0552    5.3567 O.2       11 UNK        -0.4999 
     69 C69        36.0079   29.2392    2.8082 C.3       12 UNK        -0.0954 
     70 S70        34.4603   28.6865    2.0113 S.3       12 UNK        -0.2268 
     71 C71        35.0549   27.2470    1.0701 C.3       12 UNK         0.0203 
     72 H72        26.4927   27.2571    6.2728 H         1 UNK         0.0888 
     73 H73        27.8284   27.1228    7.4206 H         1 UNK         0.0888 
     74 H74        28.0531   27.9678    5.8844 H         1 UNK         0.0888 
     75 H75        29.6902   26.6361    4.9724 H         1 UNK         0.3017 
     76 H76        29.7504   23.8312    5.0661 H         1 UNK         0.0873 
     77 H77        31.6592   25.4869    4.5368 H         1 UNK         0.0745 
     78 H78        31.0748   25.5535    2.9076 H         1 UNK         0.0745 
     79 H79        30.9695   22.9733    1.4149 H         1 UNK         0.0705 
     80 H80        32.6149   22.3900    1.3720 H         1 UNK         0.0705 
     81 H81        34.0709   24.9799    2.1914 H         1 UNK         0.1334 
     82 H82        33.4745   27.6299   -1.1198 H         1 UNK         0.1417 
     83 H83        30.9168   24.2259   -0.6187 H         1 UNK         0.1562 
     84 H84        31.1872   25.4885   -2.8936 H         1 UNK         0.0748 
     85 H85        31.9046   27.0828   -2.8406 H         1 UNK         0.0748 
     86 H86        29.3107   27.1641   -4.1765 H         1 UNK         0.0940 
     87 H87        30.0288   28.6438   -3.6070 H         1 UNK         0.0940 
     88 H88        27.7080   28.9914   -4.3327 H         1 UNK         0.0703 
     89 H89        27.0213   26.8485   -2.4222 H         1 UNK         0.3081 
     90 H90        23.5955   26.8575   -3.4995 H         1 UNK         0.0719 
     91 H91        24.1042   24.4384   -3.5564 H         1 UNK         0.0809 
     92 H92        24.8888   25.2385   -4.9064 H         1 UNK         0.0809 
     93 H93        25.8372   24.7613   -3.5052 H         1 UNK         0.0809 
     94 H94        24.8037   25.4979   -1.3400 H         1 UNK         0.2990 
     95 H95        24.5419   27.9142    1.1750 H         1 UNK         0.0690 
     96 H96        22.0983   27.4981    0.9151 H         1 UNK         0.0788 
     97 H97        22.7686   26.5048    2.1973 H         1 UNK         0.0788 
     98 H98        22.3971   25.7897    0.6276 H         1 UNK         0.0788 
     99 H99        24.6788   25.0239    1.1566 H         1 UNK         0.2993 
    100 H100       26.5030   23.9934    1.7344 H         1 UNK         0.0949 
    101 H101       28.6524   24.8835   -0.2695 H         1 UNK         0.0767 
    102 H102       28.4038   23.2392    0.3080 H         1 UNK         0.0767 
    103 H103       27.1889   24.0092   -0.6984 H         1 UNK         0.0767 
    104 H104       28.3511   26.0087    2.5794 H         1 UNK         0.3013 
    105 H105       26.4287   28.7511   -1.2388 H         1 UNK         0.3121 
    106 H106       26.0369   30.0608    0.4828 H         1 UNK         0.0774 
    107 H107       26.8352   32.4299   -1.2919 H         1 UNK         0.0815 
    108 H108       25.9049   32.5085    0.1955 H         1 UNK         0.0815 
    109 H109       25.2281   31.7069   -1.2130 H         1 UNK         0.0815 
    110 H110       28.2422   28.6901    0.7615 H         1 UNK         0.2987 
    111 H111       30.5852   30.2954    1.4374 H         1 UNK         0.0949 
    112 H112       29.8647   27.3348    1.7592 H         1 UNK         0.0806 
    113 H113       30.9678   28.0619    0.5962 H         1 UNK         0.0806 
    114 H114       31.4008   28.0088    2.2894 H         1 UNK         0.0806 
    115 H115       31.5582   30.3138    3.5146 H         1 UNK         0.3010 
    116 H116       29.8086   30.7571    5.8104 H         1 UNK         0.0829 
    117 H117       31.8890   32.1328    5.3810 H         1 UNK         0.0813 
    118 H118       31.9767   31.3098    6.9257 H         1 UNK         0.0813 
    119 H119       32.8771   30.6825    5.5548 H         1 UNK         0.0813 
    120 H120       30.6283   29.6729    7.9437 H         1 UNK         0.3038 
    121 H121       30.4709   26.7662    7.7478 H         1 UNK         0.0769 
    122 H122       30.8590   28.6412   10.1417 H         1 UNK         0.0811 
    123 H123       30.5615   26.9112   10.2351 H         1 UNK         0.0811 
    124 H124       29.3268   27.9734    9.5796 H         1 UNK         0.0811 
    125 H125       32.3190   26.7992    6.3181 H         1 UNK         0.3204 
    126 H126       34.3371   26.0289    5.7492 H         1 UNK         0.0748 
    127 H127       36.2543   25.7087    7.2218 H         1 UNK         0.0771 
    128 H128       35.4720   26.5518    8.5444 H         1 UNK         0.0771 
    129 H129       34.8407   25.0002    7.9894 H         1 UNK         0.0771 
    130 H130       35.3448   27.3284    4.3631 H         1 UNK         0.2980 
    131 H131       35.1338   30.1452    4.5474 H         1 UNK         0.0545 
    132 H132       38.3122   31.4891    5.4183 H         1 UNK         0.3459 
    133 H133       36.7559   31.8222    4.7057 H         1 UNK         0.3459 
    134 H134       36.2780   30.2006    2.3678 H         1 UNK         0.0616 
    135 H135       36.8187   28.5541    2.5540 H         1 UNK         0.0616 
    136 H136       35.7202   26.6489    1.6949 H         1 UNK         0.0634 
    137 H137       35.6503   27.5903    0.2227 H         1 UNK         0.0634 
@<TRIPOS>BOND
     1    1    2 1    
     2    1   72 1    
     3    1   73 1    
     4    1   74 1    
     5    2    3 2    
     6    2    4 am   BACKBONE|DICT|INTERRES
     7    4    5 1    
     8    4   75 1    
     9    5    6 1    
    10    5   35 1    
    11    5   76 1    
    12    6    7 1    
    13    6   77 1    
    14    6   78 1    
    15    7    8 1    
    16    8    9 1    
    17    8   79 1    
    18    8   80 1    
    19    9   10 ar   
    20    9   14 ar   
    21   10   11 ar   
    22   10   81 1    
    23   11   12 ar   
    24   11   71 1    
    25   12   13 ar   
    26   12   82 1    
    27   13   14 ar   
    28   13   15 1    
    29   14   83 1    
    30   15   16 1    
    31   15   84 1    
    32   15   85 1    
    33   16   17 1    
    34   17   18 1    
    35   17   86 1    
    36   17   87 1    
    37   18   19 1    
    38   18   37 1    
    39   18   88 1    
    40   19   20 am   BACKBONE|DICT|INTERRES
    41   19   89 1    
    42   20   21 2    
    43   20   22 1    
    44   22   23 1    
    45   22   24 1    
    46   22   90 1    
    47   23   91 1    
    48   23   92 1    
    49   23   93 1    
    50   24   25 am   BACKBONE|DICT|INTERRES
    51   24   94 1    
    52   25   26 2    
    53   25   27 1    
    54   27   28 1    
    55   27   29 1    
    56   27   95 1    
    57   28   96 1    
    58   28   97 1    
    59   28   98 1    
    60   29   30 am   BACKBONE|DICT|INTERRES
    61   29   99 1    
    62   30   31 2    
    63   30   32 1    
    64   32   33 1    
    65   32   34 1    
    66   32  100 1    
    67   33  101 1    
    68   33  102 1    
    69   33  103 1    
    70   34   35 am   BACKBONE|DICT|INTERRES
    71   34  104 1    
    72   35   36 2    
    73   37   38 2    
    74   37   39 am   BACKBONE|DICT|INTERRES
    75   39   40 1    
    76   39  105 1    
    77   40   41 1    
    78   40   42 1    
    79   40  106 1    
    80   41  107 1    
    81   41  108 1    
    82   41  109 1    
    83   42   43 2    
    84   42   44 am   BACKBONE|DICT|INTERRES
    85   44   45 1    
    86   44  110 1    
    87   45   46 1    
    88   45   47 1    
    89   45  111 1    
    90   46  112 1    
    91   46  113 1    
    92   46  114 1    
    93   47   48 2    
    94   47   49 am   BACKBONE|DICT|INTERRES
    95   49   50 1    
    96   49  115 1    
    97   50   51 1    
    98   50   52 1    
    99   50  116 1    
   100   51  117 1    
   101   51  118 1    
   102   51  119 1    
   103   52   53 2    
   104   52   54 am   BACKBONE|DICT|INTERRES
   105   54   55 1    
   106   54  120 1    
   107   55   56 1    
   108   55   57 1    
   109   55  121 1    
   110   56  122 1    
   111   56  123 1    
   112   56  124 1    
   113   57   58 2    
   114   57   59 am   BACKBONE|DICT|INTERRES
   115   59   60 1    
   116   59  125 1    
   117   60   61 1    
   118   60   62 1    
   119   60  126 1    
   120   61  127 1    
   121   61  128 1    
   122   61  129 1    
   123   62   63 2    
   124   62   64 am   BACKBONE|DICT|INTERRES
   125   64   65 1    
   126   64  130 1    
   127   65   66 1    
   128   65   69 1    
   129   65  131 1    
   130   66   67 am   BACKBONE|DICT|INTERRES
   131   66   68 2    
   132   67  132 1    
   133   67  133 1    
   134   69   70 1    
   135   69  134 1    
   136   69  135 1    
   137   70   71 1    
   138   71  136 1    
   139   71  137 1    
@<TRIPOS>SUBSTRUCTURE
     1 UNK         1 GROUP             0       ****    0 ROOT    
