@<TRIPOS>MOLECULE
3R136
137   139    1
SMALL
USER_CHARGES


@<TRIPOS>ATOM
      1 CA         31.0765   26.3468   -4.2121 C.3       0 UNK        -0.1979 
      2 C          31.2611   24.8709   -3.8657 C.2       0 UNK         0.4864 
      3 O          31.7353   24.1089   -4.7072 O.2       0 UNK        -0.5359 
      4 N          30.9218   24.4227   -2.6497 N.am      1 UNK        -0.4318 
      5 CA         30.2672   25.1843   -1.5819 C.3       1 UNK         0.0824 
      6 C6         30.5518   24.5656   -0.1880 C.3       12 UNK        -0.0944 
      7 S7         29.9677   22.8435    0.0173 S.3       12 UNK        -0.2672 
      8 C8         31.2684   22.1299    1.0691 C.3       12 UNK         0.0333 
      9 C9         31.3139   22.7901    2.4394 C.ar      12 UNK        -0.0807 
     10 C10        32.2968   23.7424    2.7257 C.ar      12 UNK        -0.0894 
     11 C11        32.3548   24.3419    3.9854 C.ar      12 UNK        -0.0804 
     12 C12        31.4258   23.9811    4.9642 C.ar      12 UNK        -0.0824 
     13 C13        30.4348   23.0329    4.6908 C.ar      12 UNK        -0.0762 
     14 C14        30.3842   22.4396    3.4250 C.ar      12 UNK        -0.0782 
     15 C15        29.4387   22.6336    5.7733 C.3       12 UNK         0.0230 
     16 S16        27.8136   23.4355    5.5696 S.3       12 UNK        -0.2608 
     17 C17        28.2474   25.2043    5.6789 C.3       12 UNK        -0.0989 
     18 CA         28.1044   25.8895    4.2923 C.3       5 UNK         0.0716 
     19 N          26.7167   26.0662    3.8446 N.am      5 UNK        -0.4135 
     20 C          25.7519   26.7753    4.4551 C.2       4 UNK         0.5031 
     21 O          25.8927   27.3237    5.5488 O.2       4 UNK        -0.5229 
     22 CA         24.3966   26.9411    3.7322 C.3       4 UNK         0.0329 
     23 CB         24.1222   28.4270    3.4390 C.3       4 UNK        -0.2001 
     24 N          24.2929   26.1982    2.4761 N.am      4 UNK        -0.4303 
     25 C          24.1397   24.8726    2.3592 C.2       3 UNK         0.5044 
     26 O          23.9490   24.1193    3.3137 O.2       3 UNK        -0.5152 
     27 CA         24.2518   24.2821    0.9383 C.3       3 UNK         0.0319 
     28 CB         22.8590   23.9211    0.3966 C.3       3 UNK        -0.2001 
     29 N          24.9378   25.1435   -0.0377 N.am      3 UNK        -0.4354 
     30 C          26.2017   25.5800    0.0620 C.2       2 UNK         0.4964 
     31 O          26.9309   25.3573    1.0330 O.2       2 UNK        -0.5047 
     32 CA         26.7042   26.4852   -1.0727 C.3       2 UNK         0.0288 
     33 CB         26.3808   27.9559   -0.7606 C.3       2 UNK        -0.2113 
     34 N          28.1500   26.3402   -1.2120 N.am      2 UNK        -0.4145 
     35 C          28.7517   25.3250   -1.8382 C.2       1 UNK         0.5006 
     36 O          28.1589   24.5156   -2.5583 O.2       1 UNK        -0.5103 
     37 C          28.8619   27.2233    4.1703 C.2       5 UNK         0.5055 
     38 O          29.3432   27.7781    5.1616 O.2       5 UNK        -0.5220 
     39 N          28.9255   27.7190    2.9314 N.am      6 UNK        -0.4450 
     40 CA         29.6403   28.9245    2.5437 C.3       6 UNK         0.0367 
     41 CB         28.6663   30.1149    2.5205 C.3       6 UNK        -0.1929 
     42 C          30.2608   28.6965    1.1646 C.2       6 UNK         0.5070 
     43 O          29.7506   27.8841    0.3908 O.2       6 UNK        -0.5237 
     44 N          31.3299   29.4358    0.8760 N.am      7 UNK        -0.4739 
     45 CA         32.0251   29.4537   -0.4064 C.3       7 UNK         0.0276 
     46 CB         33.2102   28.4660   -0.3661 C.3       7 UNK        -0.1927 
     47 C          32.4006   30.9137   -0.6920 C.2       7 UNK         0.5013 
     48 O          31.5010   31.7245   -0.9175 O.2       7 UNK        -0.5193 
     49 N          33.6984   31.2463   -0.6323 N.am      8 UNK        -0.4253 
     50 CA         34.2064   32.6243   -0.6973 C.3       8 UNK         0.0242 
     51 CB         35.7282   32.5922   -0.9141 C.3       8 UNK        -0.2000 
     52 C          33.8569   33.4587    0.5531 C.2       8 UNK         0.4948 
     53 O          33.8282   34.6876    0.4767 O.2       8 UNK        -0.5275 
     54 N          33.5887   32.7735    1.6684 N.am      9 UNK        -0.4246 
     55 CA         33.0831   33.2950    2.9311 C.3       9 UNK         0.0261 
     56 CB         34.2666   33.6607    3.8458 C.3       9 UNK        -0.1959 
     57 C          32.2031   32.2014    3.5538 C.2       9 UNK         0.5033 
     58 O          32.1584   31.0827    3.0283 O.2       9 UNK        -0.5390 
     59 N          31.5339   32.5221    4.6683 N.am      10 UNK        -0.4215 
     60 CA         30.7342   31.5895    5.4704 C.3       10 UNK         0.0240 
     61 CB         29.7797   32.3921    6.3735 C.3       10 UNK        -0.1982 
     62 C          31.6363   30.6282    6.2687 C.2       10 UNK         0.4970 
     63 O          31.8073   30.7985    7.4772 O.2       10 UNK        -0.4916 
     64 N          32.2446   29.6778    5.5531 N.am      11 UNK        -0.4279 
     65 CA         33.2257   28.7120    6.0597 C.3       11 UNK         0.1003 
     66 C          32.6918   27.6818    7.0979 C.2       11 UNK         0.5709 
     67 N          31.3969   27.3955    7.1524 N.am      11 UNK        -0.7358 
     68 O          33.4730   27.1418    7.8775 O.2       11 UNK        -0.4999 
     69 C69        33.9916   28.0392    4.8900 C.3       12 UNK        -0.0954 
     70 S70        32.9231   27.0365    3.7981 S.3       12 UNK        -0.2268 
     71 C71        33.4316   25.3649    4.3008 C.3       12 UNK         0.0203 
     72 H72        31.3970   26.5411   -5.2355 H         1 UNK         0.0888 
     73 H73        30.0309   26.6422   -4.1337 H         1 UNK         0.0888 
     74 H74        31.6737   26.9782   -3.5548 H         1 UNK         0.0888 
     75 H75        31.0194   23.4366   -2.4550 H         1 UNK         0.3017 
     76 H76        30.6897   26.1907   -1.5695 H         1 UNK         0.0873 
     77 H77        31.6264   24.6011   -0.0051 H         1 UNK         0.0745 
     78 H78        30.1037   25.1704    0.6030 H         1 UNK         0.0745 
     79 H79        31.0804   21.0616    1.1861 H         1 UNK         0.0705 
     80 H80        32.2316   22.2153    0.5635 H         1 UNK         0.0705 
     81 H81        33.0195   24.0183    1.9700 H         1 UNK         0.1334 
     82 H82        31.4786   24.4408    5.9419 H         1 UNK         0.1417 
     83 H83        29.6204   21.7054    3.2062 H         1 UNK         0.1562 
     84 H84        29.8322   22.8709    6.7631 H         1 UNK         0.0748 
     85 H85        29.3001   21.5516    5.7566 H         1 UNK         0.0748 
     86 H86        29.2637   25.2998    6.0604 H         1 UNK         0.0940 
     87 H87        27.6187   25.6800    6.4314 H         1 UNK         0.0940 
     88 H88        28.5742   25.2320    3.5575 H         1 UNK         0.0703 
     89 H89        26.5239   25.6870    2.9227 H         1 UNK         0.3081 
     90 H90        23.6229   26.5765    4.4111 H         1 UNK         0.0719 
     91 H91        24.8749   28.8529    2.7741 H         1 UNK         0.0809 
     92 H92        23.1449   28.5678    2.9768 H         1 UNK         0.0809 
     93 H93        24.1294   29.0163    4.3571 H         1 UNK         0.0809 
     94 H94        24.4312   26.7277    1.6283 H         1 UNK         0.2990 
     95 H95        24.8342   23.3622    1.0234 H         1 UNK         0.0690 
     96 H96        22.9259   23.4058   -0.5618 H         1 UNK         0.0788 
     97 H97        22.2367   24.8067    0.2611 H         1 UNK         0.0788 
     98 H98        22.3329   23.2553    1.0825 H         1 UNK         0.0788 
     99 H99        24.4035   25.3984   -0.8566 H         1 UNK         0.2993 
    100 H100       26.2191   26.2000   -2.0089 H         1 UNK         0.0949 
    101 H101       25.3044   28.1160   -0.6865 H         1 UNK         0.0767 
    102 H102       26.8261   28.2759    0.1826 H         1 UNK         0.0767 
    103 H103       26.7526   28.6166   -1.5441 H         1 UNK         0.0767 
    104 H104       28.7193   26.9388   -0.6107 H         1 UNK         0.3013 
    105 H105       28.5607   27.1796    2.1553 H         1 UNK         0.3121 
    106 H106       30.4454   29.1131    3.2546 H         1 UNK         0.0774 
    107 H107       27.8816   29.9789    1.7755 H         1 UNK         0.0815 
    108 H108       29.1898   31.0413    2.2801 H         1 UNK         0.0815 
    109 H109       28.1848   30.2540    3.4885 H         1 UNK         0.0815 
    110 H110       31.6577   30.0990    1.5779 H         1 UNK         0.2987 
    111 H111       31.3449   29.1474   -1.2046 H         1 UNK         0.0949 
    112 H112       33.8960   28.6787    0.4550 H         1 UNK         0.0806 
    113 H113       32.8552   27.4437   -0.2323 H         1 UNK         0.0806 
    114 H114       33.7767   28.4861   -1.2981 H         1 UNK         0.0806 
    115 H115       34.3755   30.5182   -0.4545 H         1 UNK         0.3010 
    116 H116       33.7473   33.1169   -1.5572 H         1 UNK         0.0829 
    117 H117       35.9880   32.0666   -1.8333 H         1 UNK         0.0813 
    118 H118       36.1313   33.6027   -0.9962 H         1 UNK         0.0813 
    119 H119       36.2448   32.1023   -0.0876 H         1 UNK         0.0813 
    120 H120       33.5765   31.7626    1.6251 H         1 UNK         0.3038 
    121 H121       32.4631   34.1747    2.7457 H         1 UNK         0.0769 
    122 H122       34.8765   32.7877    4.0823 H         1 UNK         0.0811 
    123 H123       33.9246   34.0871    4.7893 H         1 UNK         0.0811 
    124 H124       34.9141   34.4013    3.3759 H         1 UNK         0.0811 
    125 H125       31.6434   33.4528    5.0451 H         1 UNK         0.3204 
    126 H126       30.1208   30.9838    4.8028 H         1 UNK         0.0748 
    127 H127       30.3203   33.0509    7.0544 H         1 UNK         0.0771 
    128 H128       29.0984   33.0052    5.7832 H         1 UNK         0.0771 
    129 H129       29.1677   31.7246    6.9819 H         1 UNK         0.0771 
    130 H130       32.0929   29.6666    4.5524 H         1 UNK         0.2980 
    131 H131       33.9628   29.3046    6.6049 H         1 UNK         0.0545 
    132 H132       31.0687   26.7470    7.8481 H         1 UNK         0.3459 
    133 H133       30.7481   27.7714    6.4663 H         1 UNK         0.3459 
    134 H134       34.4610   28.8074    4.2735 H         1 UNK         0.0616 
    135 H135       34.8153   27.4325    5.2702 H         1 UNK         0.0616 
    136 H136       33.6472   25.3474    5.3702 H         1 UNK         0.0634 
    137 H137       34.3629   25.1054    3.7953 H         1 UNK         0.0634 
@<TRIPOS>BOND
     1    1    2 1    
     2    1   72 1    
     3    1   73 1    
     4    1   74 1    
     5    2    3 2    
     6    2    4 am   BACKBONE|DICT|INTERRES
     7    4    5 1    
     8    4   75 1    
     9    5    6 1    
    10    5   35 1    
    11    5   76 1    
    12    6    7 1    
    13    6   77 1    
    14    6   78 1    
    15    7    8 1    
    16    8    9 1    
    17    8   79 1    
    18    8   80 1    
    19    9   10 ar   
    20    9   14 ar   
    21   10   11 ar   
    22   10   81 1    
    23   11   12 ar   
    24   11   71 1    
    25   12   13 ar   
    26   12   82 1    
    27   13   14 ar   
    28   13   15 1    
    29   14   83 1    
    30   15   16 1    
    31   15   84 1    
    32   15   85 1    
    33   16   17 1    
    34   17   18 1    
    35   17   86 1    
    36   17   87 1    
    37   18   19 1    
    38   18   37 1    
    39   18   88 1    
    40   19   20 am   BACKBONE|DICT|INTERRES
    41   19   89 1    
    42   20   21 2    
    43   20   22 1    
    44   22   23 1    
    45   22   24 1    
    46   22   90 1    
    47   23   91 1    
    48   23   92 1    
    49   23   93 1    
    50   24   25 am   BACKBONE|DICT|INTERRES
    51   24   94 1    
    52   25   26 2    
    53   25   27 1    
    54   27   28 1    
    55   27   29 1    
    56   27   95 1    
    57   28   96 1    
    58   28   97 1    
    59   28   98 1    
    60   29   30 am   BACKBONE|DICT|INTERRES
    61   29   99 1    
    62   30   31 2    
    63   30   32 1    
    64   32   33 1    
    65   32   34 1    
    66   32  100 1    
    67   33  101 1    
    68   33  102 1    
    69   33  103 1    
    70   34   35 am   BACKBONE|DICT|INTERRES
    71   34  104 1    
    72   35   36 2    
    73   37   38 2    
    74   37   39 am   BACKBONE|DICT|INTERRES
    75   39   40 1    
    76   39  105 1    
    77   40   41 1    
    78   40   42 1    
    79   40  106 1    
    80   41  107 1    
    81   41  108 1    
    82   41  109 1    
    83   42   43 2    
    84   42   44 am   BACKBONE|DICT|INTERRES
    85   44   45 1    
    86   44  110 1    
    87   45   46 1    
    88   45   47 1    
    89   45  111 1    
    90   46  112 1    
    91   46  113 1    
    92   46  114 1    
    93   47   48 2    
    94   47   49 am   BACKBONE|DICT|INTERRES
    95   49   50 1    
    96   49  115 1    
    97   50   51 1    
    98   50   52 1    
    99   50  116 1    
   100   51  117 1    
   101   51  118 1    
   102   51  119 1    
   103   52   53 2    
   104   52   54 am   BACKBONE|DICT|INTERRES
   105   54   55 1    
   106   54  120 1    
   107   55   56 1    
   108   55   57 1    
   109   55  121 1    
   110   56  122 1    
   111   56  123 1    
   112   56  124 1    
   113   57   58 2    
   114   57   59 am   BACKBONE|DICT|INTERRES
   115   59   60 1    
   116   59  125 1    
   117   60   61 1    
   118   60   62 1    
   119   60  126 1    
   120   61  127 1    
   121   61  128 1    
   122   61  129 1    
   123   62   63 2    
   124   62   64 am   BACKBONE|DICT|INTERRES
   125   64   65 1    
   126   64  130 1    
   127   65   66 1    
   128   65   69 1    
   129   65  131 1    
   130   66   67 am   BACKBONE|DICT|INTERRES
   131   66   68 2    
   132   67  132 1    
   133   67  133 1    
   134   69   70 1    
   135   69  134 1    
   136   69  135 1    
   137   70   71 1    
   138   71  136 1    
   139   71  137 1    
@<TRIPOS>SUBSTRUCTURE
     1 UNK         1 GROUP             0       ****    0 ROOT    
