@<TRIPOS>MOLECULE
3R136
137   139    1
SMALL
USER_CHARGES


@<TRIPOS>ATOM
      1 CA         29.6879   18.5206   -3.1971 C.3       0 UNK        -0.1979 
      2 C          29.3588   19.9471   -2.7816 C.2       0 UNK         0.4864 
      3 O          28.6564   20.6501   -3.5103 O.2       0 UNK        -0.5359 
      4 N          29.8683   20.3816   -1.6223 N.am      1 UNK        -0.4318 
      5 CA         29.5959   21.6911   -1.0230 C.3       1 UNK         0.0824 
      6 C6         30.6676   22.0736    0.0302 C.3       12 UNK        -0.0944 
      7 S7         30.8763   20.8432    1.3646 S.3       12 UNK        -0.2672 
      8 C8         32.3139   21.5238    2.2463 C.3       12 UNK         0.0333 
      9 C9         32.0025   22.8588    2.9084 C.ar      12 UNK        -0.0807 
     10 C10        32.6075   24.0319    2.4513 C.ar      12 UNK        -0.0894 
     11 C11        32.3613   25.2505    3.0891 C.ar      12 UNK        -0.0804 
     12 C12        31.4976   25.2922    4.1885 C.ar      12 UNK        -0.0824 
     13 C13        30.8577   24.1291    4.6394 C.ar      12 UNK        -0.0762 
     14 C14        31.1270   22.9165    3.9962 C.ar      12 UNK        -0.0782 
     15 C15        29.9013   24.1199    5.8345 C.3       12 UNK         0.0230 
     16 S16        29.0423   25.6936    6.1878 S.3       12 UNK        -0.2608 
     17 C17        28.1291   26.0080    4.6379 C.3       12 UNK        -0.0989 
     18 CA         28.5293   27.3730    4.0178 C.3       5 UNK         0.0716 
     19 N          28.5812   27.3134    2.5551 N.am      5 UNK        -0.4135 
     20 C          29.2007   28.2229    1.7888 C.2       4 UNK         0.5031 
     21 O          29.8031   29.1972    2.2413 O.2       4 UNK        -0.5229 
     22 CA         29.0876   28.0612    0.2623 C.3       4 UNK         0.0329 
     23 CB         30.2736   27.2374   -0.2640 C.3       4 UNK        -0.2001 
     24 N          27.8290   27.4530   -0.1860 N.am      4 UNK        -0.4303 
     25 C          26.5975   27.8795    0.1335 C.2       3 UNK         0.5044 
     26 O          26.3788   28.8853    0.8074 O.2       3 UNK        -0.5152 
     27 CA         25.4065   27.0127   -0.3063 C.3       3 UNK         0.0319 
     28 CB         24.8205   27.5474   -1.6221 C.3       3 UNK        -0.2001 
     29 N          25.6828   25.5765   -0.4444 N.am      3 UNK        -0.4354 
     30 C          26.2244   24.7672    0.4796 C.2       2 UNK         0.4964 
     31 O          26.6944   25.1552    1.5511 O.2       2 UNK        -0.5047 
     32 CA         26.2825   23.2755    0.1310 C.3       2 UNK         0.0288 
     33 CB         25.1812   22.8207   -0.8551 C.3       2 UNK        -0.2113 
     34 N          27.6089   22.9784   -0.4021 N.am      2 UNK        -0.4145 
     35 C          28.1651   21.7623   -0.4446 C.2       1 UNK         0.5006 
     36 O          27.6069   20.7381   -0.0383 O.2       1 UNK        -0.5103 
     37 C          27.6583   28.5352    4.5526 C.2       5 UNK         0.5055 
     38 O          27.8507   28.9472    5.6967 O.2       5 UNK        -0.5220 
     39 N          26.7376   29.0568    3.7299 N.am      6 UNK        -0.4450 
     40 CA         25.9304   30.2374    4.0364 C.3       6 UNK         0.0367 
     41 CB         24.4750   29.9863    3.6069 C.3       6 UNK        -0.1929 
     42 C          26.4923   31.4825    3.3346 C.2       6 UNK         0.5070 
     43 O          26.5754   32.5409    3.9573 O.2       6 UNK        -0.5237 
     44 N          26.8466   31.3423    2.0494 N.am      7 UNK        -0.4739 
     45 CA         27.2806   32.4352    1.1783 C.3       7 UNK         0.0276 
     46 CB         27.2186   31.9726   -0.2866 C.3       7 UNK        -0.1927 
     47 C          28.6767   32.9814    1.5130 C.2       7 UNK         0.5013 
     48 O          28.8670   34.1974    1.4573 O.2       7 UNK        -0.5193 
     49 N          29.6207   32.0879    1.8370 N.am      8 UNK        -0.4253 
     50 CA         31.0010   32.4353    2.1801 C.3       8 UNK         0.0242 
     51 CB         31.9753   31.6605    1.2754 C.3       8 UNK        -0.2000 
     52 C          31.2891   32.1526    3.6581 C.2       8 UNK         0.4948 
     53 O          31.9181   32.9847    4.3126 O.2       8 UNK        -0.5275 
     54 N          30.8542   30.9826    4.1531 N.am      9 UNK        -0.4246 
     55 CA         30.9992   30.4457    5.5177 C.3       9 UNK         0.0261 
     56 CB         30.3071   31.3446    6.5603 C.3       9 UNK        -0.1959 
     57 C          32.4494   30.1232    5.9210 C.2       9 UNK         0.5033 
     58 O          32.7175   29.0123    6.3771 O.2       9 UNK        -0.5390 
     59 N          33.3625   31.0755    5.7001 N.am      10 UNK        -0.4215 
     60 CA         34.8155   30.9168    5.8111 C.3       10 UNK         0.0240 
     61 CB         35.4440   32.3004    6.0494 C.3       10 UNK        -0.1982 
     62 C          35.4403   30.2385    4.5737 C.2       10 UNK         0.4970 
     63 O          36.6435   29.9772    4.5798 O.2       10 UNK        -0.4916 
     64 N          34.6229   29.9839    3.5415 N.am      11 UNK        -0.4279 
     65 CA         34.9663   29.3287    2.2677 C.3       11 UNK         0.1003 
     66 C          35.8355   30.1892    1.3014 C.2       11 UNK         0.5709 
     67 N          36.0362   31.4770    1.5557 N.am      11 UNK        -0.7358 
     68 O          36.3077   29.6922    0.2817 O.2       11 UNK        -0.4999 
     69 C69        35.5208   27.8824    2.4320 C.3       12 UNK        -0.0954 
     70 S70        34.5618   26.8206    3.5650 S.3       12 UNK        -0.2268 
     71 C71        33.0527   26.5132    2.6014 C.3       12 UNK         0.0203 
     72 H72        30.2037   18.5184   -4.1569 H         1 UNK         0.0888 
     73 H73        30.3258   18.0210   -2.4682 H         1 UNK         0.0888 
     74 H74        28.7718   17.9396   -3.3003 H         1 UNK         0.0888 
     75 H75        30.4060   19.7525   -1.0429 H         1 UNK         0.3017 
     76 H76        29.6537   22.4296   -1.8261 H         1 UNK         0.0873 
     77 H77        31.6307   22.1991   -0.4673 H         1 UNK         0.0745 
     78 H78        30.4389   23.0433    0.4769 H         1 UNK         0.0745 
     79 H79        32.6275   20.8113    3.0105 H         1 UNK         0.0705 
     80 H80        33.1513   21.6153    1.5527 H         1 UNK         0.0705 
     81 H81        33.2876   23.9947    1.6110 H         1 UNK         0.1334 
     82 H82        31.3401   26.2327    4.6963 H         1 UNK         0.1417 
     83 H83        30.6576   22.0062    4.3448 H         1 UNK         0.1562 
     84 H84        30.4661   23.8322    6.7220 H         1 UNK         0.0748 
     85 H85        29.1407   23.3503    5.6923 H         1 UNK         0.0748 
     86 H86        27.0556   25.9450    4.8278 H         1 UNK         0.0940 
     87 H87        28.3435   25.1945    3.9426 H         1 UNK         0.0940 
     88 H88        29.5485   27.6045    4.3309 H         1 UNK         0.0703 
     89 H89        28.0653   26.5583    2.1134 H         1 UNK         0.3081 
     90 H90        29.1421   29.0593   -0.1755 H         1 UNK         0.0719 
     91 H91        30.2671   26.2196    0.1290 H         1 UNK         0.0809 
     92 H92        30.2666   27.1794   -1.3526 H         1 UNK         0.0809 
     93 H93        31.2224   27.6913    0.0266 H         1 UNK         0.0809 
     94 H94        27.9035   26.6229   -0.7539 H         1 UNK         0.2990 
     95 H95        24.6441   27.1132    0.4687 H         1 UNK         0.0690 
     96 H96        23.8962   27.0323   -1.8846 H         1 UNK         0.0788 
     97 H97        25.5186   27.4311   -2.4521 H         1 UNK         0.0788 
     98 H98        24.5836   28.6097   -1.5419 H         1 UNK         0.0788 
     99 H99        25.3470   25.1451   -1.2938 H         1 UNK         0.2993 
    100 H100       26.1497   22.7326    1.0698 H         1 UNK         0.0949 
    101 H101       25.1538   21.7339   -0.9364 H         1 UNK         0.0767 
    102 H102       24.1928   23.1358   -0.5172 H         1 UNK         0.0767 
    103 H103       25.3360   23.2165   -1.8595 H         1 UNK         0.0767 
    104 H104       28.1437   23.7748   -0.7184 H         1 UNK         0.3013 
    105 H105       26.6590   28.6961    2.7853 H         1 UNK         0.3121 
    106 H106       25.9307   30.4323    5.1112 H         1 UNK         0.0774 
    107 H107       24.3926   29.7859    2.5379 H         1 UNK         0.0815 
    108 H108       23.8499   30.8531    3.8252 H         1 UNK         0.0815 
    109 H109       24.0478   29.1367    4.1396 H         1 UNK         0.0815 
    110 H110       26.7051   30.4387    1.6004 H         1 UNK         0.2987 
    111 H111       26.5722   33.2579    1.3004 H         1 UNK         0.0949 
    112 H112       27.8900   31.1348   -0.4755 H         1 UNK         0.0806 
    113 H113       26.2109   31.6598   -0.5609 H         1 UNK         0.0806 
    114 H114       27.5034   32.7790   -0.9638 H         1 UNK         0.0806 
    115 H115       29.3755   31.1046    1.8819 H         1 UNK         0.3010 
    116 H116       31.1792   33.5003    2.0166 H         1 UNK         0.0829 
    117 H117       31.8788   30.5811    1.3915 H         1 UNK         0.0813 
    118 H118       31.8057   31.8962    0.2248 H         1 UNK         0.0813 
    119 H119       33.0090   31.9252    1.5005 H         1 UNK         0.0813 
    120 H120       30.4115   30.3423    3.4950 H         1 UNK         0.3038 
    121 H121       30.4698   29.4932    5.5132 H         1 UNK         0.0769 
    122 H122       30.3391   30.8854    7.5491 H         1 UNK         0.0811 
    123 H123       30.7794   32.3237    6.6415 H         1 UNK         0.0811 
    124 H124       29.2570   31.4977    6.3098 H         1 UNK         0.0811 
    125 H125       33.0185   31.9528    5.3090 H         1 UNK         0.3204 
    126 H126       35.0359   30.2846    6.6737 H         1 UNK         0.0748 
    127 H127       36.5253   32.2255    6.1734 H         1 UNK         0.0771 
    128 H128       35.2562   32.9784    5.2158 H         1 UNK         0.0771 
    129 H129       35.0484   32.7639    6.9535 H         1 UNK         0.0771 
    130 H130       33.6551   30.2426    3.6458 H         1 UNK         0.2980 
    131 H131       34.0133   29.2352    1.7470 H         1 UNK         0.0545 
    132 H132       36.5905   32.0234    0.9156 H         1 UNK         0.3459 
    133 H133       35.6633   31.9004    2.3891 H         1 UNK         0.3459 
    134 H134       35.5733   27.3812    1.4640 H         1 UNK         0.0616 
    135 H135       36.5457   27.9144    2.8050 H         1 UNK         0.0616 
    136 H136       33.3001   26.4199    1.5428 H         1 UNK         0.0634 
    137 H137       32.3834   27.3705    2.6911 H         1 UNK         0.0634 
@<TRIPOS>BOND
     1    1    2 1    
     2    1   72 1    
     3    1   73 1    
     4    1   74 1    
     5    2    3 2    
     6    2    4 am   BACKBONE|DICT|INTERRES
     7    4    5 1    
     8    4   75 1    
     9    5    6 1    
    10    5   35 1    
    11    5   76 1    
    12    6    7 1    
    13    6   77 1    
    14    6   78 1    
    15    7    8 1    
    16    8    9 1    
    17    8   79 1    
    18    8   80 1    
    19    9   10 ar   
    20    9   14 ar   
    21   10   11 ar   
    22   10   81 1    
    23   11   12 ar   
    24   11   71 1    
    25   12   13 ar   
    26   12   82 1    
    27   13   14 ar   
    28   13   15 1    
    29   14   83 1    
    30   15   16 1    
    31   15   84 1    
    32   15   85 1    
    33   16   17 1    
    34   17   18 1    
    35   17   86 1    
    36   17   87 1    
    37   18   19 1    
    38   18   37 1    
    39   18   88 1    
    40   19   20 am   BACKBONE|DICT|INTERRES
    41   19   89 1    
    42   20   21 2    
    43   20   22 1    
    44   22   23 1    
    45   22   24 1    
    46   22   90 1    
    47   23   91 1    
    48   23   92 1    
    49   23   93 1    
    50   24   25 am   BACKBONE|DICT|INTERRES
    51   24   94 1    
    52   25   26 2    
    53   25   27 1    
    54   27   28 1    
    55   27   29 1    
    56   27   95 1    
    57   28   96 1    
    58   28   97 1    
    59   28   98 1    
    60   29   30 am   BACKBONE|DICT|INTERRES
    61   29   99 1    
    62   30   31 2    
    63   30   32 1    
    64   32   33 1    
    65   32   34 1    
    66   32  100 1    
    67   33  101 1    
    68   33  102 1    
    69   33  103 1    
    70   34   35 am   BACKBONE|DICT|INTERRES
    71   34  104 1    
    72   35   36 2    
    73   37   38 2    
    74   37   39 am   BACKBONE|DICT|INTERRES
    75   39   40 1    
    76   39  105 1    
    77   40   41 1    
    78   40   42 1    
    79   40  106 1    
    80   41  107 1    
    81   41  108 1    
    82   41  109 1    
    83   42   43 2    
    84   42   44 am   BACKBONE|DICT|INTERRES
    85   44   45 1    
    86   44  110 1    
    87   45   46 1    
    88   45   47 1    
    89   45  111 1    
    90   46  112 1    
    91   46  113 1    
    92   46  114 1    
    93   47   48 2    
    94   47   49 am   BACKBONE|DICT|INTERRES
    95   49   50 1    
    96   49  115 1    
    97   50   51 1    
    98   50   52 1    
    99   50  116 1    
   100   51  117 1    
   101   51  118 1    
   102   51  119 1    
   103   52   53 2    
   104   52   54 am   BACKBONE|DICT|INTERRES
   105   54   55 1    
   106   54  120 1    
   107   55   56 1    
   108   55   57 1    
   109   55  121 1    
   110   56  122 1    
   111   56  123 1    
   112   56  124 1    
   113   57   58 2    
   114   57   59 am   BACKBONE|DICT|INTERRES
   115   59   60 1    
   116   59  125 1    
   117   60   61 1    
   118   60   62 1    
   119   60  126 1    
   120   61  127 1    
   121   61  128 1    
   122   61  129 1    
   123   62   63 2    
   124   62   64 am   BACKBONE|DICT|INTERRES
   125   64   65 1    
   126   64  130 1    
   127   65   66 1    
   128   65   69 1    
   129   65  131 1    
   130   66   67 am   BACKBONE|DICT|INTERRES
   131   66   68 2    
   132   67  132 1    
   133   67  133 1    
   134   69   70 1    
   135   69  134 1    
   136   69  135 1    
   137   70   71 1    
   138   71  136 1    
   139   71  137 1    
@<TRIPOS>SUBSTRUCTURE
     1 UNK         1 GROUP             0       ****    0 ROOT    
