@<TRIPOS>MOLECULE
3R136
137   139    1
SMALL
USER_CHARGES


@<TRIPOS>ATOM
      1 CA         26.0966   22.1577    4.5423 C.3       0 UNK        -0.1979 
      2 C          26.5898   22.5604    3.1614 C.2       0 UNK         0.4864 
      3 O          25.8913   23.2846    2.4511 O.2       0 UNK        -0.5359 
      4 N          27.7942   22.1122    2.7787 N.am      1 UNK        -0.4318 
      5 CA         28.4294   22.3992    1.4855 C.3       1 UNK         0.0824 
      6 C6         29.7345   21.5872    1.2844 C.3       12 UNK        -0.0944 
      7 S7         31.0363   21.9100    2.5328 S.3       12 UNK        -0.2672 
      8 C8         32.5159   22.1654    1.4993 C.3       12 UNK         0.0333 
      9 C9         32.6803   23.6074    1.0305 C.ar      12 UNK        -0.0807 
     10 C10        33.5758   24.4634    1.6827 C.ar      12 UNK        -0.0894 
     11 C11        33.8007   25.7597    1.2043 C.ar      12 UNK        -0.0804 
     12 C12        33.1011   26.2072    0.0792 C.ar      12 UNK        -0.0824 
     13 C13        32.1938   25.3672   -0.5724 C.ar      12 UNK        -0.0762 
     14 C14        31.9927   24.0690   -0.0959 C.ar      12 UNK        -0.0782 
     15 C15        31.4464   25.8463   -1.8065 C.3       12 UNK         0.0230 
     16 S16        29.9623   26.7812   -1.3407 S.3       12 UNK        -0.2608 
     17 C17        28.9953   26.7017   -2.8810 C.3       12 UNK        -0.0989 
     18 CA         27.5115   27.1128   -2.7106 C.3       5 UNK         0.0716 
     19 N          26.7837   26.2322   -1.7832 N.am      5 UNK        -0.4135 
     20 C          25.4687   25.9816   -1.8778 C.2       4 UNK         0.5031 
     21 O          24.7530   26.4212   -2.7791 O.2       4 UNK        -0.5229 
     22 CA         24.8271   25.1174   -0.7779 C.3       4 UNK         0.0329 
     23 CB         25.1059   23.6238   -1.0112 C.3       4 UNK        -0.2001 
     24 N          25.2399   25.5001    0.5740 N.am      4 UNK        -0.4303 
     25 C          24.9713   26.6823    1.1489 C.2       3 UNK         0.5044 
     26 O          24.3305   27.5820    0.6062 O.2       3 UNK        -0.5152 
     27 CA         25.5392   26.9173    2.5574 C.3       3 UNK         0.0319 
     28 CB         24.6020   26.3465    3.6338 C.3       3 UNK        -0.2001 
     29 N          26.8788   26.3498    2.7108 N.am      3 UNK        -0.4354 
     30 C          27.9747   26.8478    2.1201 C.2       2 UNK         0.4964 
     31 O          27.9741   27.8656    1.4317 O.2       2 UNK        -0.5047 
     32 CA         29.2825   26.0652    2.3061 C.3       2 UNK         0.0288 
     33 CB         29.9621   26.4636    3.6228 C.3       2 UNK        -0.2113 
     34 N          29.0868   24.6171    2.2845 N.am      2 UNK        -0.4145 
     35 C          28.6293   23.9089    1.2413 C.2       1 UNK         0.5006 
     36 O          28.3120   24.3964    0.1556 O.2       1 UNK        -0.5103 
     37 C          27.3601   28.6149   -2.3723 C.2       5 UNK         0.5055 
     38 O          27.6922   29.4471   -3.2185 O.2       5 UNK        -0.5220 
     39 N          26.8693   28.9323   -1.1638 N.am      6 UNK        -0.4450 
     40 CA         26.7195   30.2685   -0.5750 C.3       6 UNK         0.0367 
     41 CB         25.7195   31.1305   -1.3753 C.3       6 UNK        -0.1929 
     42 C          28.0788   30.9577   -0.3412 C.2       6 UNK         0.5070 
     43 O          28.2585   32.1248   -0.6962 O.2       6 UNK        -0.5237 
     44 N          29.0136   30.2103    0.2560 N.am      7 UNK        -0.4739 
     45 CA         30.3279   30.6848    0.6869 C.3       7 UNK         0.0276 
     46 CB         31.2956   29.4907    0.7291 C.3       7 UNK        -0.1927 
     47 C          30.2595   31.3823    2.0572 C.2       7 UNK         0.5013 
     48 O          29.2358   31.3224    2.7448 O.2       7 UNK        -0.5193 
     49 N          31.3685   32.0343    2.4276 N.am      8 UNK        -0.4253 
     50 CA         31.5585   32.7051    3.7143 C.3       8 UNK         0.0242 
     51 CB         32.8199   33.5823    3.6294 C.3       8 UNK        -0.2000 
     52 C          31.6811   31.7122    4.8837 C.2       8 UNK         0.4948 
     53 O          32.0663   30.5572    4.6848 O.2       8 UNK        -0.5275 
     54 N          31.4257   32.2134    6.1012 N.am      9 UNK        -0.4246 
     55 CA         31.4993   31.4729    7.3691 C.3       9 UNK         0.0261 
     56 CB         31.0328   32.3868    8.5141 C.3       9 UNK        -0.1959 
     57 C          32.8810   30.8706    7.6932 C.2       9 UNK         0.5033 
     58 O          32.9542   29.9360    8.4922 O.2       9 UNK        -0.5390 
     59 N          33.9405   31.3756    7.0436 N.am      10 UNK        -0.4215 
     60 CA         35.3084   30.8489    7.0824 C.3       10 UNK         0.0240 
     61 CB         36.2167   31.7522    6.2322 C.3       10 UNK        -0.1982 
     62 C          35.4354   29.3801    6.6287 C.2       10 UNK         0.4970 
     63 O          36.3812   28.7110    7.0468 O.2       10 UNK        -0.4916 
     64 N          34.4850   28.8971    5.8154 N.am      11 UNK        -0.4279 
     65 CA         34.3408   27.4774    5.4590 C.3       11 UNK         0.1003 
     66 C          33.8557   26.5665    6.6271 C.2       11 UNK         0.5709 
     67 N          33.3750   27.0958    7.7473 N.am      11 UNK        -0.7358 
     68 O          33.9288   25.3451    6.5167 O.2       11 UNK        -0.4999 
     69 C69        33.4375   27.2924    4.2144 C.3       12 UNK        -0.0954 
     70 S70        34.1172   28.0824    2.7214 S.3       12 UNK        -0.2268 
     71 C71        34.8463   26.6559    1.8580 C.3       12 UNK         0.0203 
     72 H72        25.9054   23.0448    5.1453 H         1 UNK         0.0888 
     73 H73        25.1664   21.5966    4.4572 H         1 UNK         0.0888 
     74 H74        26.8210   21.5372    5.0695 H         1 UNK         0.0888 
     75 H75        28.3316   21.5293    3.4052 H         1 UNK         0.3017 
     76 H76        27.7248   22.0625    0.7217 H         1 UNK         0.0873 
     77 H77        30.1235   21.7480    0.2792 H         1 UNK         0.0745 
     78 H78        29.5024   20.5219    1.3265 H         1 UNK         0.0745 
     79 H79        32.4913   21.4917    0.6414 H         1 UNK         0.0705 
     80 H80        33.3896   21.8673    2.0809 H         1 UNK         0.0705 
     81 H81        34.1240   24.1082    2.5447 H         1 UNK         0.1334 
     82 H82        33.2714   27.2076   -0.2948 H         1 UNK         0.1417 
     83 H83        31.3071   23.4168   -0.6166 H         1 UNK         0.1562 
     84 H84        31.1664   24.9926   -2.4254 H         1 UNK         0.0748 
     85 H85        32.0922   26.4753   -2.4209 H         1 UNK         0.0748 
     86 H86        29.0383   25.6825   -3.2679 H         1 UNK         0.0940 
     87 H87        29.4836   27.3252   -3.6325 H         1 UNK         0.0940 
     88 H88        27.0577   26.9949   -3.6972 H         1 UNK         0.0703 
     89 H89        27.3274   25.7974   -1.0424 H         1 UNK         0.3081 
     90 H90        23.7466   25.2649   -0.8363 H         1 UNK         0.0719 
     91 H91        24.6126   23.0063   -0.2602 H         1 UNK         0.0809 
     92 H92        24.7347   23.3074   -1.9868 H         1 UNK         0.0809 
     93 H93        26.1713   23.3974   -0.9813 H         1 UNK         0.0809 
     94 H94        25.7259   24.7960    1.1219 H         1 UNK         0.2990 
     95 H95        25.6096   27.9965    2.7111 H         1 UNK         0.0690 
     96 H96        23.6094   26.7927    3.5590 H         1 UNK         0.0788 
     97 H97        24.9755   26.5555    4.6364 H         1 UNK         0.0788 
     98 H98        24.4799   25.2673    3.5388 H         1 UNK         0.0788 
     99 H99        26.9526   25.4826    3.2223 H         1 UNK         0.2993 
    100 H100       29.9532   26.3210    1.4847 H         1 UNK         0.0949 
    101 H101       29.3368   26.2420    4.4884 H         1 UNK         0.0767 
    102 H102       30.9063   25.9348    3.7477 H         1 UNK         0.0767 
    103 H103       30.1774   27.5332    3.6388 H         1 UNK         0.0767 
    104 H104       29.3352   24.1104    3.1215 H         1 UNK         0.3013 
    105 H105       26.6821   28.1684   -0.5281 H         1 UNK         0.3121 
    106 H106       26.2897   30.1100    0.4155 H         1 UNK         0.0774 
    107 H107       26.0996   31.3854   -2.3647 H         1 UNK         0.0815 
    108 H108       25.5151   32.0680   -0.8570 H         1 UNK         0.0815 
    109 H109       24.7671   30.6158   -1.5021 H         1 UNK         0.0815 
    110 H110       28.7387   29.2861    0.5853 H         1 UNK         0.2987 
    111 H111       30.6996   31.4084   -0.0421 H         1 UNK         0.0949 
    112 H112       30.9517   28.7125    1.4116 H         1 UNK         0.0806 
    113 H113       31.4126   29.0467   -0.2582 H         1 UNK         0.0806 
    114 H114       32.2900   29.7940    1.0563 H         1 UNK         0.0806 
    115 H115       32.1742   31.9981    1.8207 H         1 UNK         0.3010 
    116 H116       30.6922   33.3460    3.8932 H         1 UNK         0.0829 
    117 H117       32.7441   34.3089    2.8201 H         1 UNK         0.0813 
    118 H118       32.9736   34.1466    4.5502 H         1 UNK         0.0813 
    119 H119       33.7168   32.9845    3.4599 H         1 UNK         0.0813 
    120 H120       31.1353   33.1788    6.1693 H         1 UNK         0.3038 
    121 H121       30.8016   30.6362    7.2940 H         1 UNK         0.0769 
    122 H122       31.6753   33.2619    8.6200 H         1 UNK         0.0811 
    123 H123       31.0458   31.8565    9.4676 H         1 UNK         0.0811 
    124 H124       30.0118   32.7347    8.3555 H         1 UNK         0.0811 
    125 H125       33.7726   32.1424    6.4099 H         1 UNK         0.3204 
    126 H126       35.6465   30.8966    8.1196 H         1 UNK         0.0748 
    127 H127       37.2508   31.4054    6.2619 H         1 UNK         0.0771 
    128 H128       35.9074   31.7648    5.1860 H         1 UNK         0.0771 
    129 H129       36.2120   32.7793    6.5979 H         1 UNK         0.0771 
    130 H130       33.7424   29.5088    5.4949 H         1 UNK         0.2980 
    131 H131       35.3339   27.1083    5.1959 H         1 UNK         0.0545 
    132 H132       33.0750   26.4809    8.4864 H         1 UNK         0.3459 
    133 H133       33.3073   28.1004    7.8747 H         1 UNK         0.3459 
    134 H134       33.2714   26.2347    4.0052 H         1 UNK         0.0616 
    135 H135       32.4553   27.7264    4.4037 H         1 UNK         0.0616 
    136 H136       35.4651   26.0911    2.5571 H         1 UNK         0.0634 
    137 H137       35.5225   27.0278    1.0871 H         1 UNK         0.0634 
@<TRIPOS>BOND
     1    1    2 1    
     2    1   72 1    
     3    1   73 1    
     4    1   74 1    
     5    2    3 2    
     6    2    4 am   BACKBONE|DICT|INTERRES
     7    4    5 1    
     8    4   75 1    
     9    5    6 1    
    10    5   35 1    
    11    5   76 1    
    12    6    7 1    
    13    6   77 1    
    14    6   78 1    
    15    7    8 1    
    16    8    9 1    
    17    8   79 1    
    18    8   80 1    
    19    9   10 ar   
    20    9   14 ar   
    21   10   11 ar   
    22   10   81 1    
    23   11   12 ar   
    24   11   71 1    
    25   12   13 ar   
    26   12   82 1    
    27   13   14 ar   
    28   13   15 1    
    29   14   83 1    
    30   15   16 1    
    31   15   84 1    
    32   15   85 1    
    33   16   17 1    
    34   17   18 1    
    35   17   86 1    
    36   17   87 1    
    37   18   19 1    
    38   18   37 1    
    39   18   88 1    
    40   19   20 am   BACKBONE|DICT|INTERRES
    41   19   89 1    
    42   20   21 2    
    43   20   22 1    
    44   22   23 1    
    45   22   24 1    
    46   22   90 1    
    47   23   91 1    
    48   23   92 1    
    49   23   93 1    
    50   24   25 am   BACKBONE|DICT|INTERRES
    51   24   94 1    
    52   25   26 2    
    53   25   27 1    
    54   27   28 1    
    55   27   29 1    
    56   27   95 1    
    57   28   96 1    
    58   28   97 1    
    59   28   98 1    
    60   29   30 am   BACKBONE|DICT|INTERRES
    61   29   99 1    
    62   30   31 2    
    63   30   32 1    
    64   32   33 1    
    65   32   34 1    
    66   32  100 1    
    67   33  101 1    
    68   33  102 1    
    69   33  103 1    
    70   34   35 am   BACKBONE|DICT|INTERRES
    71   34  104 1    
    72   35   36 2    
    73   37   38 2    
    74   37   39 am   BACKBONE|DICT|INTERRES
    75   39   40 1    
    76   39  105 1    
    77   40   41 1    
    78   40   42 1    
    79   40  106 1    
    80   41  107 1    
    81   41  108 1    
    82   41  109 1    
    83   42   43 2    
    84   42   44 am   BACKBONE|DICT|INTERRES
    85   44   45 1    
    86   44  110 1    
    87   45   46 1    
    88   45   47 1    
    89   45  111 1    
    90   46  112 1    
    91   46  113 1    
    92   46  114 1    
    93   47   48 2    
    94   47   49 am   BACKBONE|DICT|INTERRES
    95   49   50 1    
    96   49  115 1    
    97   50   51 1    
    98   50   52 1    
    99   50  116 1    
   100   51  117 1    
   101   51  118 1    
   102   51  119 1    
   103   52   53 2    
   104   52   54 am   BACKBONE|DICT|INTERRES
   105   54   55 1    
   106   54  120 1    
   107   55   56 1    
   108   55   57 1    
   109   55  121 1    
   110   56  122 1    
   111   56  123 1    
   112   56  124 1    
   113   57   58 2    
   114   57   59 am   BACKBONE|DICT|INTERRES
   115   59   60 1    
   116   59  125 1    
   117   60   61 1    
   118   60   62 1    
   119   60  126 1    
   120   61  127 1    
   121   61  128 1    
   122   61  129 1    
   123   62   63 2    
   124   62   64 am   BACKBONE|DICT|INTERRES
   125   64   65 1    
   126   64  130 1    
   127   65   66 1    
   128   65   69 1    
   129   65  131 1    
   130   66   67 am   BACKBONE|DICT|INTERRES
   131   66   68 2    
   132   67  132 1    
   133   67  133 1    
   134   69   70 1    
   135   69  134 1    
   136   69  135 1    
   137   70   71 1    
   138   71  136 1    
   139   71  137 1    
@<TRIPOS>SUBSTRUCTURE
     1 UNK         1 GROUP             0       ****    0 ROOT    
