@<TRIPOS>MOLECULE
3R136
137   139    1
SMALL
USER_CHARGES


@<TRIPOS>ATOM
      1 CA         28.1025   25.1322    6.3691 C.3       0 UNK        -0.1979 
      2 C          28.0149   24.1899    5.1783 C.2       0 UNK         0.4864 
      3 O          27.5463   23.0620    5.3386 O.2       0 UNK        -0.5359 
      4 N          28.4608   24.6303    3.9917 N.am      1 UNK        -0.4318 
      5 CA         28.4004   23.8465    2.7521 C.3       1 UNK         0.0824 
      6 C6         29.3566   24.3917    1.6624 C.3       12 UNK        -0.0944 
      7 S7         31.0914   24.0467    2.1080 S.3       12 UNK        -0.2672 
      8 C8         31.9175   24.0561    0.4858 C.3       12 UNK         0.0333 
      9 C9         32.3447   25.4606    0.0889 C.ar      12 UNK        -0.0807 
     10 C10        33.4505   26.0468    0.7107 C.ar      12 UNK        -0.0894 
     11 C11        33.8524   27.3415    0.3738 C.ar      12 UNK        -0.0804 
     12 C12        33.1574   28.0424   -0.6142 C.ar      12 UNK        -0.0824 
     13 C13        32.0450   27.4708   -1.2387 C.ar      12 UNK        -0.0762 
     14 C14        31.6442   26.1761   -0.8871 C.ar      12 UNK        -0.0782 
     15 C15        31.2590   28.2696   -2.2691 C.3       12 UNK         0.0230 
     16 S16        30.4868   29.7559   -1.5449 S.3       12 UNK        -0.2608 
     17 C17        29.4127   29.0364   -0.2563 C.3       12 UNK        -0.0989 
     18 CA         27.9354   28.9164   -0.6993 C.3       5 UNK         0.0716 
     19 N          27.7594   28.0380   -1.8484 N.am      5 UNK        -0.4135 
     20 C          27.2920   28.3963   -3.0484 C.2       4 UNK         0.5031 
     21 O          27.1471   29.5614   -3.4206 O.2       4 UNK        -0.5229 
     22 CA         26.8724   27.2449   -3.9825 C.3       4 UNK         0.0329 
     23 CB         28.0291   26.8629   -4.9204 C.3       4 UNK        -0.2001 
     24 N          26.4151   26.0492   -3.2609 N.am      4 UNK        -0.4303 
     25 C          25.3488   25.9989   -2.4468 C.2       3 UNK         0.5044 
     26 O          24.5826   26.9467   -2.2659 O.2       3 UNK        -0.5152 
     27 CA         25.1006   24.6906   -1.6849 C.3       3 UNK         0.0319 
     28 CB         26.0897   23.5511   -2.0146 C.3       3 UNK        -0.2001 
     29 N          25.1501   24.9711   -0.2514 N.am      3 UNK        -0.4354 
     30 C          24.3495   24.4170    0.6663 C.2       2 UNK         0.4964 
     31 O          23.4177   23.6580    0.3895 O.2       2 UNK        -0.5047 
     32 CA         24.6661   24.7426    2.1430 C.3       2 UNK         0.0288 
     33 CB         23.8876   23.8490    3.1318 C.3       2 UNK        -0.2113 
     34 N          26.1012   24.7055    2.4668 N.am      2 UNK        -0.4145 
     35 C          26.9594   23.6978    2.2243 C.2       1 UNK         0.5006 
     36 O          26.6572   22.6577    1.6361 O.2       1 UNK        -0.5103 
     37 C          27.1050   28.2930    0.4312 C.2       5 UNK         0.5055 
     38 O          27.0176   27.0619    0.5142 O.2       5 UNK        -0.5220 
     39 N          26.5287   29.1418    1.2895 N.am      6 UNK        -0.4450 
     40 CA         25.8355   28.7091    2.5028 C.3       6 UNK         0.0367 
     41 CB         24.9023   29.8245    3.0016 C.3       6 UNK        -0.1929 
     42 C          26.8314   28.2944    3.5968 C.2       6 UNK         0.5070 
     43 O          26.6626   27.2366    4.2026 O.2       6 UNK        -0.5237 
     44 N          27.8457   29.1431    3.8105 N.am      7 UNK        -0.4739 
     45 CA         28.8918   29.0029    4.8246 C.3       7 UNK         0.0276 
     46 CB         29.5823   30.3707    4.9930 C.3       7 UNK        -0.1927 
     47 C          29.9289   27.9151    4.4913 C.2       7 UNK         0.5013 
     48 O          29.9219   27.3523    3.3964 O.2       7 UNK        -0.5193 
     49 N          30.8097   27.6583    5.4616 N.am      8 UNK        -0.4253 
     50 CA         32.0209   26.8529    5.3535 C.3       8 UNK         0.0242 
     51 CB         31.7291   25.3900    5.7251 C.3       8 UNK        -0.2000 
     52 C          33.0439   27.4694    6.3149 C.2       8 UNK         0.4948 
     53 O          32.6397   28.1216    7.2835 O.2       8 UNK        -0.5275 
     54 N          34.3396   27.2771    6.0307 N.am      9 UNK        -0.4246 
     55 CA         35.5227   27.7961    6.7420 C.3       9 UNK         0.0261 
     56 CB         35.5953   27.2702    8.1893 C.3       9 UNK        -0.1959 
     57 C          35.6670   29.3303    6.6936 C.2       9 UNK         0.5033 
     58 O          36.7103   29.8294    6.2714 O.2       9 UNK        -0.5390 
     59 N          34.6040   30.0513    7.0714 N.am      10 UNK        -0.4215 
     60 CA         34.4593   31.5077    6.9616 C.3       10 UNK         0.0240 
     61 CB         33.2521   31.9485    7.8063 C.3       10 UNK        -0.1982 
     62 C          34.3120   32.0037    5.5081 C.2       10 UNK         0.4970 
     63 O          34.3982   33.2084    5.2693 O.2       10 UNK        -0.4916 
     64 N          34.0943   31.0717    4.5731 N.am      11 UNK        -0.4279 
     65 CA         34.0417   31.2736    3.1202 C.3       11 UNK         0.1003 
     66 C          35.3647   31.7739    2.4650 C.2       11 UNK         0.5709 
     67 N          36.5143   31.6751    3.1239 N.am      11 UNK        -0.7358 
     68 O          35.3418   32.2664    1.3396 O.2       11 UNK        -0.4999 
     69 C69        33.5037   29.9964    2.4227 C.3       12 UNK        -0.0954 
     70 S70        34.5173   28.5125    2.7736 S.3       12 UNK        -0.2268 
     71 C71        35.0164   27.9885    1.1055 C.3       12 UNK         0.0203 
     72 H72        28.3842   26.1405    6.0715 H         1 UNK         0.0888 
     73 H73        27.1343   25.1926    6.8690 H         1 UNK         0.0888 
     74 H74        28.8374   24.7657    7.0872 H         1 UNK         0.0888 
     75 H75        28.8478   25.5637    3.8979 H         1 UNK         0.3017 
     76 H76        28.7265   22.8322    2.9949 H         1 UNK         0.0873 
     77 H77        29.2225   25.4654    1.5163 H         1 UNK         0.0745 
     78 H78        29.1505   23.9203    0.6995 H         1 UNK         0.0745 
     79 H79        32.8013   23.4191    0.5432 H         1 UNK         0.0705 
     80 H80        31.2731   23.6090   -0.2724 H         1 UNK         0.0705 
     81 H81        33.9828   25.5036    1.4797 H         1 UNK         0.1334 
     82 H82        33.4582   29.0477   -0.8761 H         1 UNK         0.1417 
     83 H83        30.7805   25.7305   -1.3612 H         1 UNK         0.1562 
     84 H84        30.4865   27.6556   -2.7333 H         1 UNK         0.0748 
     85 H85        31.9304   28.5759   -3.0724 H         1 UNK         0.0748 
     86 H86        29.4896   29.6821    0.6206 H         1 UNK         0.0940 
     87 H87        29.8008   28.0692    0.0665 H         1 UNK         0.0940 
     88 H88        27.5401   29.9109   -0.9177 H         1 UNK         0.0703 
     89 H89        27.7697   27.0557   -1.6142 H         1 UNK         0.3081 
     90 H90        26.0401   27.6046   -4.5911 H         1 UNK         0.0719 
     91 H91        28.8803   26.4583   -4.3717 H         1 UNK         0.0809 
     92 H92        27.7167   26.1187   -5.6531 H         1 UNK         0.0809 
     93 H93        28.3836   27.7324   -5.4762 H         1 UNK         0.0809 
     94 H94        26.9741   25.2147   -3.3657 H         1 UNK         0.2990 
     95 H95        24.0971   24.3652   -1.9669 H         1 UNK         0.0690 
     96 H96        26.0743   23.3017   -3.0765 H         1 UNK         0.0788 
     97 H97        25.8244   22.6418   -1.4741 H         1 UNK         0.0788 
     98 H98        27.1140   23.8033   -1.7363 H         1 UNK         0.0788 
     99 H99        25.8538   25.6419    0.0533 H         1 UNK         0.2993 
    100 H100       24.3326   25.7671    2.3026 H         1 UNK         0.0949 
    101 H101       24.0986   24.1260    4.1650 H         1 UNK         0.0767 
    102 H102       22.8109   23.9442    2.9853 H         1 UNK         0.0767 
    103 H103       24.1433   22.7958    3.0093 H         1 UNK         0.0767 
    104 H104       26.4591   25.5168    2.9605 H         1 UNK         0.3013 
    105 H105       26.6231   30.1366    1.1415 H         1 UNK         0.3121 
    106 H106       25.2172   27.8446    2.2608 H         1 UNK         0.0774 
    107 H107       25.4473   30.7368    3.2472 H         1 UNK         0.0815 
    108 H108       24.3704   29.5115    3.9013 H         1 UNK         0.0815 
    109 H109       24.1498   30.0747    2.2536 H         1 UNK         0.0815 
    110 H110       27.9096   29.9586    3.2211 H         1 UNK         0.2987 
    111 H111       28.4121   28.7312    5.7678 H         1 UNK         0.0949 
    112 H112       30.3177   30.3546    5.7985 H         1 UNK         0.0806 
    113 H113       30.1049   30.6726    4.0839 H         1 UNK         0.0806 
    114 H114       28.8621   31.1512    5.2402 H         1 UNK         0.0806 
    115 H115       30.7689   28.1838    6.3276 H         1 UNK         0.3010 
    116 H116       32.4067   26.9070    4.3327 H         1 UNK         0.0829 
    117 H117       31.0164   24.9430    5.0347 H         1 UNK         0.0813 
    118 H118       32.6364   24.7861    5.6808 H         1 UNK         0.0813 
    119 H119       31.3250   25.3018    6.7343 H         1 UNK         0.0813 
    120 H120       34.5549   26.7503    5.1945 H         1 UNK         0.3038 
    121 H121       36.3838   27.3893    6.2088 H         1 UNK         0.0769 
    122 H122       36.5202   27.5889    8.6717 H         1 UNK         0.0811 
    123 H123       34.7705   27.6327    8.8033 H         1 UNK         0.0811 
    124 H124       35.5762   26.1807    8.2148 H         1 UNK         0.0811 
    125 H125       33.7829   29.5240    7.3680 H         1 UNK         0.3204 
    126 H126       35.3585   31.9707    7.3731 H         1 UNK         0.0748 
    127 H127       33.1285   33.0321    7.7795 H         1 UNK         0.0771 
    128 H128       32.3235   31.5044    7.4448 H         1 UNK         0.0771 
    129 H129       33.3749   31.6643    8.8516 H         1 UNK         0.0771 
    130 H130       34.0617   30.1087    4.8681 H         1 UNK         0.2980 
    131 H131       33.3122   32.0669    2.9477 H         1 UNK         0.0545 
    132 H132       37.3614   32.0058    2.6901 H         1 UNK         0.3459 
    133 H133       36.5461   31.2533    4.0398 H         1 UNK         0.3459 
    134 H134       33.4211   30.1554    1.3467 H         1 UNK         0.0616 
    135 H135       32.4878   29.7895    2.7640 H         1 UNK         0.0616 
    136 H136       35.8355   27.2730    1.1898 H         1 UNK         0.0634 
    137 H137       35.4081   28.8434    0.5518 H         1 UNK         0.0634 
@<TRIPOS>BOND
     1    1    2 1    
     2    1   72 1    
     3    1   73 1    
     4    1   74 1    
     5    2    3 2    
     6    2    4 am   BACKBONE|DICT|INTERRES
     7    4    5 1    
     8    4   75 1    
     9    5    6 1    
    10    5   35 1    
    11    5   76 1    
    12    6    7 1    
    13    6   77 1    
    14    6   78 1    
    15    7    8 1    
    16    8    9 1    
    17    8   79 1    
    18    8   80 1    
    19    9   10 ar   
    20    9   14 ar   
    21   10   11 ar   
    22   10   81 1    
    23   11   12 ar   
    24   11   71 1    
    25   12   13 ar   
    26   12   82 1    
    27   13   14 ar   
    28   13   15 1    
    29   14   83 1    
    30   15   16 1    
    31   15   84 1    
    32   15   85 1    
    33   16   17 1    
    34   17   18 1    
    35   17   86 1    
    36   17   87 1    
    37   18   19 1    
    38   18   37 1    
    39   18   88 1    
    40   19   20 am   BACKBONE|DICT|INTERRES
    41   19   89 1    
    42   20   21 2    
    43   20   22 1    
    44   22   23 1    
    45   22   24 1    
    46   22   90 1    
    47   23   91 1    
    48   23   92 1    
    49   23   93 1    
    50   24   25 am   BACKBONE|DICT|INTERRES
    51   24   94 1    
    52   25   26 2    
    53   25   27 1    
    54   27   28 1    
    55   27   29 1    
    56   27   95 1    
    57   28   96 1    
    58   28   97 1    
    59   28   98 1    
    60   29   30 am   BACKBONE|DICT|INTERRES
    61   29   99 1    
    62   30   31 2    
    63   30   32 1    
    64   32   33 1    
    65   32   34 1    
    66   32  100 1    
    67   33  101 1    
    68   33  102 1    
    69   33  103 1    
    70   34   35 am   BACKBONE|DICT|INTERRES
    71   34  104 1    
    72   35   36 2    
    73   37   38 2    
    74   37   39 am   BACKBONE|DICT|INTERRES
    75   39   40 1    
    76   39  105 1    
    77   40   41 1    
    78   40   42 1    
    79   40  106 1    
    80   41  107 1    
    81   41  108 1    
    82   41  109 1    
    83   42   43 2    
    84   42   44 am   BACKBONE|DICT|INTERRES
    85   44   45 1    
    86   44  110 1    
    87   45   46 1    
    88   45   47 1    
    89   45  111 1    
    90   46  112 1    
    91   46  113 1    
    92   46  114 1    
    93   47   48 2    
    94   47   49 am   BACKBONE|DICT|INTERRES
    95   49   50 1    
    96   49  115 1    
    97   50   51 1    
    98   50   52 1    
    99   50  116 1    
   100   51  117 1    
   101   51  118 1    
   102   51  119 1    
   103   52   53 2    
   104   52   54 am   BACKBONE|DICT|INTERRES
   105   54   55 1    
   106   54  120 1    
   107   55   56 1    
   108   55   57 1    
   109   55  121 1    
   110   56  122 1    
   111   56  123 1    
   112   56  124 1    
   113   57   58 2    
   114   57   59 am   BACKBONE|DICT|INTERRES
   115   59   60 1    
   116   59  125 1    
   117   60   61 1    
   118   60   62 1    
   119   60  126 1    
   120   61  127 1    
   121   61  128 1    
   122   61  129 1    
   123   62   63 2    
   124   62   64 am   BACKBONE|DICT|INTERRES
   125   64   65 1    
   126   64  130 1    
   127   65   66 1    
   128   65   69 1    
   129   65  131 1    
   130   66   67 am   BACKBONE|DICT|INTERRES
   131   66   68 2    
   132   67  132 1    
   133   67  133 1    
   134   69   70 1    
   135   69  134 1    
   136   69  135 1    
   137   70   71 1    
   138   71  136 1    
   139   71  137 1    
@<TRIPOS>SUBSTRUCTURE
     1 UNK         1 GROUP             0       ****    0 ROOT    
