@<TRIPOS>MOLECULE
3R136
137   139    1
SMALL
USER_CHARGES


@<TRIPOS>ATOM
      1 CA         32.3157   24.8139   -5.2139 C.3       0 UNK        -0.1979 
      2 C          31.5801   25.2847   -3.9677 C.2       0 UNK         0.4864 
      3 O          31.4401   26.4905   -3.7605 O.2       0 UNK        -0.5359 
      4 N          31.1165   24.3429   -3.1357 N.am      1 UNK        -0.4318 
      5 CA         30.3351   24.6058   -1.9246 C.3       1 UNK         0.0824 
      6 C6         30.2806   23.3474   -1.0233 C.3       12 UNK        -0.0944 
      7 S7         29.7522   23.7342    0.6762 S.3       12 UNK        -0.2672 
      8 C8         31.2429   23.3240    1.6400 C.3       12 UNK         0.0333 
      9 C9         31.0484   23.6656    3.1103 C.ar      12 UNK        -0.0807 
     10 C10        31.9132   24.5517    3.7590 C.ar      12 UNK        -0.0894 
     11 C11        31.6879   24.9213    5.0896 C.ar      12 UNK        -0.0804 
     12 C12        30.5947   24.3753    5.7730 C.ar      12 UNK        -0.0824 
     13 C13        29.7336   23.4681    5.1465 C.ar      12 UNK        -0.0762 
     14 C14        29.9851   23.1026    3.8202 C.ar      12 UNK        -0.0782 
     15 C15        28.5537   22.8819    5.9215 C.3       12 UNK         0.0230 
     16 S16        27.0603   22.5894    4.9072 S.3       12 UNK        -0.2608 
     17 C17        26.2997   24.2444    4.8103 C.3       12 UNK        -0.0989 
     18 CA         26.7707   25.0697    3.5721 C.3       5 UNK         0.0716 
     19 N          25.6872   25.7588    2.8671 N.am      5 UNK        -0.4135 
     20 C          24.8019   26.6237    3.3882 C.2       4 UNK         0.5031 
     21 O          24.7273   26.8871    4.5889 O.2       4 UNK        -0.5229 
     22 CA         23.8300   27.3356    2.4216 C.3       4 UNK         0.0329 
     23 CB         24.1338   28.8432    2.3723 C.3       4 UNK        -0.2001 
     24 N          23.8560   26.8126    1.0542 N.am      4 UNK        -0.4303 
     25 C          23.3861   25.6199    0.6633 C.2       3 UNK         0.5044 
     26 O          22.7568   24.8589    1.3984 O.2       3 UNK        -0.5152 
     27 CA         23.7072   25.1834   -0.7808 C.3       3 UNK         0.0319 
     28 CB         22.4710   25.3522   -1.6790 C.3       3 UNK        -0.2001 
     29 N          24.8468   25.8819   -1.3950 N.am      3 UNK        -0.4354 
     30 C          26.1076   25.8714   -0.9379 C.2       2 UNK         0.4964 
     31 O          26.4577   25.3023    0.0996 O.2       2 UNK        -0.5047 
     32 CA         27.1188   26.7177   -1.7241 C.3       2 UNK         0.0288 
     33 CB         27.1213   28.1615   -1.1935 C.3       2 UNK        -0.2113 
     34 N          28.4664   26.1668   -1.6015 N.am      2 UNK        -0.4145 
     35 C          28.9228   25.1134   -2.2892 C.2       1 UNK         0.5006 
     36 O          28.2774   24.5366   -3.1701 O.2       1 UNK        -0.5103 
     37 C          27.8919   26.0843    3.8701 C.2       5 UNK         0.5055 
     38 O          28.0945   26.4784    5.0206 O.2       5 UNK        -0.5220 
     39 N          28.5675   26.5291    2.8049 N.am      6 UNK        -0.4450 
     40 CA         29.6941   27.4514    2.8630 C.3       6 UNK         0.0367 
     41 CB         29.1944   28.9007    3.0037 C.3       6 UNK        -0.1929 
     42 C          30.5189   27.2902    1.5863 C.2       6 UNK         0.5070 
     43 O          29.9428   27.2597    0.4980 O.2       6 UNK        -0.5237 
     44 N          31.8465   27.2265    1.7297 N.am      7 UNK        -0.4739 
     45 CA         32.7907   27.2782    0.6091 C.3       7 UNK         0.0276 
     46 CB         34.1071   26.5965    1.0159 C.3       7 UNK        -0.1927 
     47 C          33.0521   28.7248    0.1567 C.2       7 UNK         0.5013 
     48 O          33.3583   28.9523   -1.0137 O.2       7 UNK        -0.5193 
     49 N          32.9236   29.6668    1.0966 N.am      8 UNK        -0.4253 
     50 CA         33.0997   31.1053    0.9539 C.3       8 UNK         0.0242 
     51 CB         34.5871   31.4444    0.7202 C.3       8 UNK        -0.2000 
     52 C          32.5955   31.7509    2.2497 C.2       8 UNK         0.4948 
     53 O          32.3703   31.0464    3.2408 O.2       8 UNK        -0.5275 
     54 N          32.5006   33.0873    2.2573 N.am      9 UNK        -0.4246 
     55 CA         32.1440   33.9031    3.4290 C.3       9 UNK         0.0261 
     56 CB         32.0473   35.3780    3.0053 C.3       9 UNK        -0.1959 
     57 C          33.0999   33.7486    4.6319 C.2       9 UNK         0.5033 
     58 O          32.7205   34.0883    5.7530 O.2       9 UNK        -0.5390 
     59 N          34.3042   33.2148    4.3834 N.am      10 UNK        -0.4215 
     60 CA         35.2869   32.8083    5.3866 C.3       10 UNK         0.0240 
     61 CB         36.6150   32.4888    4.6801 C.3       10 UNK        -0.1982 
     62 C          34.8432   31.6147    6.2570 C.2       10 UNK         0.4970 
     63 O          35.3966   31.4591    7.3468 O.2       10 UNK        -0.4916 
     64 N          33.8808   30.8039    5.7891 N.am      11 UNK        -0.4279 
     65 CA         33.3077   29.6779    6.5458 C.3       11 UNK         0.1003 
     66 C          31.7529   29.6742    6.5858 C.2       11 UNK         0.5709 
     67 N          31.0585   30.3358    5.6676 N.am      11 UNK        -0.7358 
     68 O          31.1676   29.0852    7.4914 O.2       11 UNK        -0.4999 
     69 C69        33.9602   28.3162    6.1545 C.3       12 UNK        -0.0954 
     70 S70        33.1183   27.3438    4.8501 S.3       12 UNK        -0.2268 
     71 C71        32.6300   25.8750    5.8202 C.3       12 UNK         0.0203 
     72 H72        32.3783   23.7270   -5.2651 H         1 UNK         0.0888 
     73 H73        33.3298   25.2124   -5.2238 H         1 UNK         0.0888 
     74 H74        31.8019   25.1663   -6.1079 H         1 UNK         0.0888 
     75 H75        31.2329   23.3696   -3.3785 H         1 UNK         0.3017 
     76 H76        30.8529   25.3954   -1.3773 H         1 UNK         0.0873 
     77 H77        31.2643   22.8770   -0.9797 H         1 UNK         0.0745 
     78 H78        29.6090   22.5932   -1.4385 H         1 UNK         0.0745 
     79 H79        31.4626   22.2602    1.5405 H         1 UNK         0.0705 
     80 H80        32.0935   23.8666    1.2252 H         1 UNK         0.0705 
     81 H81        32.7578   24.9633    3.2259 H         1 UNK         0.1334 
     82 H82        30.4131   24.6560    6.8016 H         1 UNK         0.1417 
     83 H83        29.3336   22.4000    3.3193 H         1 UNK         0.1562 
     84 H84        28.2894   23.5232    6.7638 H         1 UNK         0.0748 
     85 H85        28.8701   21.9293    6.3481 H         1 UNK         0.0748 
     86 H86        26.4270   24.7776    5.7538 H         1 UNK         0.0940 
     87 H87        25.2261   24.0625    4.7422 H         1 UNK         0.0940 
     88 H88        27.1744   24.3722    2.8355 H         1 UNK         0.0703 
     89 H89        25.6984   25.6296    1.8595 H         1 UNK         0.3081 
     90 H90        22.8217   27.2000    2.8185 H         1 UNK         0.0719 
     91 H91        24.0779   29.2866    3.3676 H         1 UNK         0.0809 
     92 H92        25.1340   29.0411    1.9844 H         1 UNK         0.0809 
     93 H93        23.4172   29.3736    1.7449 H         1 UNK         0.0809 
     94 H94        24.3450   27.3690    0.3689 H         1 UNK         0.2990 
     95 H95        23.9598   24.1217   -0.7429 H         1 UNK         0.0690 
     96 H96        22.6475   24.9529   -2.6780 H         1 UNK         0.0788 
     97 H97        22.1851   26.4000   -1.7799 H         1 UNK         0.0788 
     98 H98        21.6128   24.8187   -1.2675 H         1 UNK         0.0788 
     99 H99        24.6459   26.3990   -2.2396 H         1 UNK         0.2993 
    100 H100       26.8366   26.7272   -2.7793 H         1 UNK         0.0949 
    101 H101       27.3692   28.2009   -0.1315 H         1 UNK         0.0767 
    102 H102       27.8472   28.7765   -1.7260 H         1 UNK         0.0767 
    103 H103       26.1451   28.6311   -1.3201 H         1 UNK         0.0767 
    104 H104       29.0439   26.5569   -0.8557 H         1 UNK         0.3013 
    105 H105       28.3662   26.1582    1.8834 H         1 UNK         0.3121 
    106 H106       30.3147   27.1992    3.7251 H         1 UNK         0.0774 
    107 H107       28.5323   29.1788    2.1829 H         1 UNK         0.0815 
    108 H108       28.6509   29.0454    3.9372 H         1 UNK         0.0815 
    109 H109       30.0287   29.6025    3.0025 H         1 UNK         0.0815 
    110 H110       32.2399   27.2417    2.6624 H         1 UNK         0.2987 
    111 H111       32.3763   26.7374   -0.2434 H         1 UNK         0.0949 
    112 H112       33.9568   25.5409    1.2384 H         1 UNK         0.0806 
    113 H113       34.8390   26.6512    0.2087 H         1 UNK         0.0806 
    114 H114       34.5540   27.0667    1.8929 H         1 UNK         0.0806 
    115 H115       32.6397   29.3971    2.0307 H         1 UNK         0.3010 
    116 H116       32.4914   31.4595    0.1194 H         1 UNK         0.0829 
    117 H117       34.7431   32.5199    0.6303 H         1 UNK         0.0813 
    118 H118       34.9604   30.9963   -0.2005 H         1 UNK         0.0813 
    119 H119       35.2142   31.0881    1.5387 H         1 UNK         0.0813 
    120 H120       32.7065   33.5921    1.4064 H         1 UNK         0.3038 
    121 H121       31.1572   33.5776    3.7651 H         1 UNK         0.0769 
    122 H122       31.3017   35.5193    2.2227 H         1 UNK         0.0811 
    123 H123       33.0014   35.7554    2.6349 H         1 UNK         0.0811 
    124 H124       31.7528   36.0078    3.8462 H         1 UNK         0.0811 
    125 H125       34.5237   32.9919    3.4245 H         1 UNK         0.3204 
    126 H126       35.4487   33.6556    6.0563 H         1 UNK         0.0748 
    127 H127       37.3863   32.2172    5.4025 H         1 UNK         0.0771 
    128 H128       36.5126   31.6544    3.9848 H         1 UNK         0.0771 
    129 H129       36.9864   33.3490    4.1226 H         1 UNK         0.0771 
    130 H130       33.4612   30.9862    4.8841 H         1 UNK         0.2980 
    131 H131       33.5676   29.8347    7.5944 H         1 UNK         0.0545 
    132 H132       31.5132   30.7375    4.8545 H         1 UNK         0.3459 
    133 H133       30.0542   30.3361    5.7309 H         1 UNK         0.3459 
    134 H134       34.0316   27.6981    7.0506 H         1 UNK         0.0616 
    135 H135       34.9949   28.4680    5.8436 H         1 UNK         0.0616 
    136 H136       33.5278   25.3274    6.1097 H         1 UNK         0.0634 
    137 H137       32.1619   26.2195    6.7440 H         1 UNK         0.0634 
@<TRIPOS>BOND
     1    1    2 1    
     2    1   72 1    
     3    1   73 1    
     4    1   74 1    
     5    2    3 2    
     6    2    4 am   BACKBONE|DICT|INTERRES
     7    4    5 1    
     8    4   75 1    
     9    5    6 1    
    10    5   35 1    
    11    5   76 1    
    12    6    7 1    
    13    6   77 1    
    14    6   78 1    
    15    7    8 1    
    16    8    9 1    
    17    8   79 1    
    18    8   80 1    
    19    9   10 ar   
    20    9   14 ar   
    21   10   11 ar   
    22   10   81 1    
    23   11   12 ar   
    24   11   71 1    
    25   12   13 ar   
    26   12   82 1    
    27   13   14 ar   
    28   13   15 1    
    29   14   83 1    
    30   15   16 1    
    31   15   84 1    
    32   15   85 1    
    33   16   17 1    
    34   17   18 1    
    35   17   86 1    
    36   17   87 1    
    37   18   19 1    
    38   18   37 1    
    39   18   88 1    
    40   19   20 am   BACKBONE|DICT|INTERRES
    41   19   89 1    
    42   20   21 2    
    43   20   22 1    
    44   22   23 1    
    45   22   24 1    
    46   22   90 1    
    47   23   91 1    
    48   23   92 1    
    49   23   93 1    
    50   24   25 am   BACKBONE|DICT|INTERRES
    51   24   94 1    
    52   25   26 2    
    53   25   27 1    
    54   27   28 1    
    55   27   29 1    
    56   27   95 1    
    57   28   96 1    
    58   28   97 1    
    59   28   98 1    
    60   29   30 am   BACKBONE|DICT|INTERRES
    61   29   99 1    
    62   30   31 2    
    63   30   32 1    
    64   32   33 1    
    65   32   34 1    
    66   32  100 1    
    67   33  101 1    
    68   33  102 1    
    69   33  103 1    
    70   34   35 am   BACKBONE|DICT|INTERRES
    71   34  104 1    
    72   35   36 2    
    73   37   38 2    
    74   37   39 am   BACKBONE|DICT|INTERRES
    75   39   40 1    
    76   39  105 1    
    77   40   41 1    
    78   40   42 1    
    79   40  106 1    
    80   41  107 1    
    81   41  108 1    
    82   41  109 1    
    83   42   43 2    
    84   42   44 am   BACKBONE|DICT|INTERRES
    85   44   45 1    
    86   44  110 1    
    87   45   46 1    
    88   45   47 1    
    89   45  111 1    
    90   46  112 1    
    91   46  113 1    
    92   46  114 1    
    93   47   48 2    
    94   47   49 am   BACKBONE|DICT|INTERRES
    95   49   50 1    
    96   49  115 1    
    97   50   51 1    
    98   50   52 1    
    99   50  116 1    
   100   51  117 1    
   101   51  118 1    
   102   51  119 1    
   103   52   53 2    
   104   52   54 am   BACKBONE|DICT|INTERRES
   105   54   55 1    
   106   54  120 1    
   107   55   56 1    
   108   55   57 1    
   109   55  121 1    
   110   56  122 1    
   111   56  123 1    
   112   56  124 1    
   113   57   58 2    
   114   57   59 am   BACKBONE|DICT|INTERRES
   115   59   60 1    
   116   59  125 1    
   117   60   61 1    
   118   60   62 1    
   119   60  126 1    
   120   61  127 1    
   121   61  128 1    
   122   61  129 1    
   123   62   63 2    
   124   62   64 am   BACKBONE|DICT|INTERRES
   125   64   65 1    
   126   64  130 1    
   127   65   66 1    
   128   65   69 1    
   129   65  131 1    
   130   66   67 am   BACKBONE|DICT|INTERRES
   131   66   68 2    
   132   67  132 1    
   133   67  133 1    
   134   69   70 1    
   135   69  134 1    
   136   69  135 1    
   137   70   71 1    
   138   71  136 1    
   139   71  137 1    
@<TRIPOS>SUBSTRUCTURE
     1 UNK         1 GROUP             0       ****    0 ROOT    
