@<TRIPOS>MOLECULE
3R136
137   139    1
SMALL
USER_CHARGES


@<TRIPOS>ATOM
      1 CA         28.2257   19.9484   -2.8732 C.3       0 UNK        -0.1979 
      2 C          28.2264   20.4460   -1.4357 C.2       0 UNK         0.4864 
      3 O          27.4763   19.9221   -0.6103 O.2       0 UNK        -0.5359 
      4 N          29.0524   21.4598   -1.1382 N.am      1 UNK        -0.4318 
      5 CA         29.2603   22.1127    0.1643 C.3       1 UNK         0.0824 
      6 C6         29.8237   21.1714    1.2638 C.3       12 UNK        -0.0944 
      7 S7         31.6161   20.9168    1.0383 S.3       12 UNK        -0.2672 
      8 C8         32.3169   21.7800    2.4867 C.3       12 UNK         0.0333 
      9 C9         31.9155   23.2495    2.5593 C.ar      12 UNK        -0.0807 
     10 C10        32.4909   24.1868    1.6966 C.ar      12 UNK        -0.0894 
     11 C11        32.1284   25.5363    1.7685 C.ar      12 UNK        -0.0804 
     12 C12        31.1827   25.9476    2.7136 C.ar      12 UNK        -0.0824 
     13 C13        30.5976   25.0187    3.5810 C.ar      12 UNK        -0.0762 
     14 C14        30.9752   23.6750    3.5027 C.ar      12 UNK        -0.0782 
     15 C15        29.5564   25.4465    4.6066 C.3       12 UNK         0.0230 
     16 S16        27.8724   25.0403    4.0377 S.3       12 UNK        -0.2608 
     17 C17        27.0824   26.6706    3.8211 C.3       12 UNK        -0.0989 
     18 CA         27.7884   27.6196    2.8206 C.3       5 UNK         0.0716 
     19 N          27.9628   27.0368    1.4824 N.am      5 UNK        -0.4135 
     20 C          28.7130   27.5606    0.4995 C.2       4 UNK         0.5031 
     21 O          29.4092   28.5649    0.6473 O.2       4 UNK        -0.5229 
     22 CA         28.6236   26.9225   -0.8980 C.3       4 UNK         0.0329 
     23 CB         29.8757   26.0918   -1.2159 C.3       4 UNK        -0.2001 
     24 N          27.4285   26.0962   -1.0773 N.am      4 UNK        -0.4303 
     25 C          26.1851   26.5672   -1.2450 C.2       3 UNK         0.5044 
     26 O          25.9073   27.7667   -1.2586 O.2       3 UNK        -0.5152 
     27 CA         25.0644   25.5247   -1.4115 C.3       3 UNK         0.0319 
     28 CB         24.8724   25.1766   -2.8961 C.3       3 UNK        -0.2001 
     29 N          25.3185   24.2951   -0.6545 N.am      3 UNK        -0.4354 
     30 C          25.1884   24.1926    0.6758 C.2       2 UNK         0.4964 
     31 O          24.7731   25.1018    1.3945 O.2       2 UNK        -0.5047 
     32 CA         25.6315   22.8644    1.3173 C.3       2 UNK         0.0288 
     33 CB         24.5023   21.8241    1.2463 C.3       2 UNK        -0.2113 
     34 N          26.8610   22.2896    0.7539 N.am      2 UNK        -0.4145 
     35 C          28.0424   22.9148    0.6615 C.2       1 UNK         0.5006 
     36 O          28.1962   24.1033    0.9288 O.2       1 UNK        -0.5103 
     37 C          27.1143   29.0121    2.8214 C.2       5 UNK         0.5055 
     38 O          27.1249   29.6749    3.8585 O.2       5 UNK        -0.5220 
     39 N          26.6157   29.4866    1.6693 N.am      6 UNK        -0.4450 
     40 CA         26.2961   30.8981    1.4304 C.3       6 UNK         0.0367 
     41 CB         25.6674   31.0414    0.0356 C.3       6 UNK        -0.1929 
     42 C          27.5210   31.8313    1.5685 C.2       6 UNK         0.5070 
     43 O          27.3422   33.0133    1.8616 O.2       6 UNK        -0.5237 
     44 N          28.7322   31.2850    1.3845 N.am      7 UNK        -0.4739 
     45 CA         30.0178   31.9526    1.5825 C.3       7 UNK         0.0276 
     46 CB         30.8333   31.8467    0.2801 C.3       7 UNK        -0.1927 
     47 C          30.7816   31.3604    2.7839 C.2       7 UNK         0.5013 
     48 O          32.0131   31.3958    2.7891 O.2       7 UNK        -0.5193 
     49 N          30.0674   30.8275    3.7893 N.am      8 UNK        -0.4253 
     50 CA         30.6492   30.3222    5.0409 C.3       8 UNK         0.0242 
     51 CB         29.5493   29.6942    5.9120 C.3       8 UNK        -0.2000 
     52 C          31.3972   31.4098    5.8349 C.2       8 UNK         0.4948 
     53 O          31.1371   32.6014    5.6536 O.2       8 UNK        -0.5275 
     54 N          32.3372   30.9711    6.6811 N.am      9 UNK        -0.4246 
     55 CA         33.3045   31.7558    7.4637 C.3       9 UNK         0.0261 
     56 CB         32.6433   32.8521    8.3233 C.3       9 UNK        -0.1959 
     57 C          34.4565   32.3087    6.6072 C.2       9 UNK         0.5033 
     58 O          35.6005   32.2757    7.0628 O.2       9 UNK        -0.5390 
     59 N          34.1632   32.7448    5.3732 N.am      10 UNK        -0.4215 
     60 CA         35.1593   32.9309    4.3159 C.3       10 UNK         0.0240 
     61 CB         34.5885   33.8031    3.1849 C.3       10 UNK        -0.1982 
     62 C          35.6337   31.5584    3.8086 C.2       10 UNK         0.4970 
     63 O          36.8300   31.2714    3.8637 O.2       10 UNK        -0.4916 
     64 N          34.6789   30.7168    3.3914 N.am      11 UNK        -0.4279 
     65 CA         34.8656   29.2764    3.1939 C.3       11 UNK         0.1003 
     66 C          34.8868   28.5388    4.5603 C.2       11 UNK         0.5709 
     67 N          35.8325   27.6339    4.7699 N.am      11 UNK        -0.7358 
     68 O          34.0338   28.7641    5.4186 O.2       11 UNK        -0.4999 
     69 C69        33.7743   28.7040    2.2531 C.3       12 UNK        -0.0954 
     70 S70        34.3245   27.1904    1.4023 S.3       12 UNK        -0.2268 
     71 C71        32.7401   26.5372    0.7995 C.3       12 UNK         0.0203 
     72 H72        28.9284   20.4999   -3.4976 H         1 UNK         0.0888 
     73 H73        28.5004   18.8944   -2.9041 H         1 UNK         0.0888 
     74 H74        27.2314   20.0544   -3.3063 H         1 UNK         0.0888 
     75 H75        29.6229   21.8374   -1.8821 H         1 UNK         0.3017 
     76 H76        30.0198   22.8734   -0.0266 H         1 UNK         0.0873 
     77 H77        29.6474   21.5709    2.2633 H         1 UNK         0.0745 
     78 H78        29.3263   20.2012    1.2533 H         1 UNK         0.0745 
     79 H79        32.0132   21.2531    3.3927 H         1 UNK         0.0705 
     80 H80        33.4046   21.7069    2.4456 H         1 UNK         0.0705 
     81 H81        33.2186   23.8635    0.9648 H         1 UNK         0.1334 
     82 H82        30.8992   26.9890    2.7637 H         1 UNK         0.1417 
     83 H83        30.5228   22.9574    4.1736 H         1 UNK         0.1562 
     84 H84        29.6499   26.5064    4.8407 H         1 UNK         0.0748 
     85 H85        29.7392   24.9219    5.5456 H         1 UNK         0.0748 
     86 H86        26.0514   26.4976    3.5061 H         1 UNK         0.0940 
     87 H87        27.0190   27.1329    4.8085 H         1 UNK         0.0940 
     88 H88        28.7928   27.8101    3.1961 H         1 UNK         0.0703 
     89 H89        27.5169   26.1416    1.3179 H         1 UNK         0.3081 
     90 H90        28.5737   27.7383   -1.6225 H         1 UNK         0.0719 
     91 H91        30.0859   25.3563   -0.4392 H         1 UNK         0.0809 
     92 H92        29.7780   25.5644   -2.1648 H         1 UNK         0.0809 
     93 H93        30.7485   26.7386   -1.3007 H         1 UNK         0.0809 
     94 H94        27.5568   25.0996   -0.9749 H         1 UNK         0.2990 
     95 H95        24.1380   25.9731   -1.0456 H         1 UNK         0.0690 
     96 H96        24.0356   24.4923   -3.0379 H         1 UNK         0.0788 
     97 H97        25.7626   24.7130   -3.3233 H         1 UNK         0.0788 
     98 H98        24.6588   26.0723   -3.4813 H         1 UNK         0.0788 
     99 H99        25.6518   23.4934   -1.1701 H         1 UNK         0.2993 
    100 H100       25.8353   23.0749    2.3696 H         1 UNK         0.0949 
    101 H101       24.7581   20.9236    1.8052 H         1 UNK         0.0767 
    102 H102       23.5792   22.2182    1.6742 H         1 UNK         0.0767 
    103 H103       24.2880   21.5305    0.2179 H         1 UNK         0.0767 
    104 H104       26.8319   21.3188    0.4489 H         1 UNK         0.3013 
    105 H105       26.6075   28.8804    0.8598 H         1 UNK         0.3121 
    106 H106       25.5606   31.2071    2.1760 H         1 UNK         0.0774 
    107 H107       26.3559   30.7287   -0.7508 H         1 UNK         0.0815 
    108 H108       25.3913   32.0776   -0.1642 H         1 UNK         0.0815 
    109 H109       24.7617   30.4414   -0.0558 H         1 UNK         0.0815 
    110 H110       28.7986   30.2990    1.1402 H         1 UNK         0.2987 
    111 H111       29.8672   33.0112    1.8035 H         1 UNK         0.0949 
    112 H112       31.0760   30.8097    0.0435 H         1 UNK         0.0806 
    113 H113       30.2866   32.2648   -0.5650 H         1 UNK         0.0806 
    114 H114       31.7739   32.3936    0.3578 H         1 UNK         0.0806 
    115 H115       29.0572   30.8384    3.7290 H         1 UNK         0.3010 
    116 H116       31.3685   29.5444    4.7749 H         1 UNK         0.0829 
    117 H117       29.0996   28.8309    5.4252 H         1 UNK         0.0813 
    118 H118       29.9473   29.3459    6.8660 H         1 UNK         0.0813 
    119 H119       28.7545   30.4082    6.1321 H         1 UNK         0.0813 
    120 H120       32.5228   29.9746    6.6828 H         1 UNK         0.3038 
    121 H121       33.7532   31.0384    8.1530 H         1 UNK         0.0769 
    122 H122       32.2476   33.6690    7.7197 H         1 UNK         0.0811 
    123 H123       33.3678   33.2881    9.0122 H         1 UNK         0.0811 
    124 H124       31.8270   32.4492    8.9227 H         1 UNK         0.0811 
    125 H125       33.1855   32.7642    5.1040 H         1 UNK         0.3204 
    126 H126       36.0224   33.4521    4.7362 H         1 UNK         0.0748 
    127 H127       35.3250   33.9404    2.3920 H         1 UNK         0.0771 
    128 H128       33.7003   33.3654    2.7306 H         1 UNK         0.0771 
    129 H129       34.3193   34.7940    3.5508 H         1 UNK         0.0771 
    130 H130       33.7160   31.0417    3.3282 H         1 UNK         0.2980 
    131 H131       35.8355   29.1436    2.7098 H         1 UNK         0.0545 
    132 H132       36.5211   27.4285    4.0631 H         1 UNK         0.3459 
    133 H133       35.8497   27.1390    5.6473 H         1 UNK         0.3459 
    134 H134       33.5330   29.4277    1.4726 H         1 UNK         0.0616 
    135 H135       32.8410   28.5204    2.7887 H         1 UNK         0.0616 
    136 H136       32.9088   26.0550   -0.1644 H         1 UNK         0.0634 
    137 H137       32.0501   27.3613    0.6115 H         1 UNK         0.0634 
@<TRIPOS>BOND
     1    1    2 1    
     2    1   72 1    
     3    1   73 1    
     4    1   74 1    
     5    2    3 2    
     6    2    4 am   BACKBONE|DICT|INTERRES
     7    4    5 1    
     8    4   75 1    
     9    5    6 1    
    10    5   35 1    
    11    5   76 1    
    12    6    7 1    
    13    6   77 1    
    14    6   78 1    
    15    7    8 1    
    16    8    9 1    
    17    8   79 1    
    18    8   80 1    
    19    9   10 ar   
    20    9   14 ar   
    21   10   11 ar   
    22   10   81 1    
    23   11   12 ar   
    24   11   71 1    
    25   12   13 ar   
    26   12   82 1    
    27   13   14 ar   
    28   13   15 1    
    29   14   83 1    
    30   15   16 1    
    31   15   84 1    
    32   15   85 1    
    33   16   17 1    
    34   17   18 1    
    35   17   86 1    
    36   17   87 1    
    37   18   19 1    
    38   18   37 1    
    39   18   88 1    
    40   19   20 am   BACKBONE|DICT|INTERRES
    41   19   89 1    
    42   20   21 2    
    43   20   22 1    
    44   22   23 1    
    45   22   24 1    
    46   22   90 1    
    47   23   91 1    
    48   23   92 1    
    49   23   93 1    
    50   24   25 am   BACKBONE|DICT|INTERRES
    51   24   94 1    
    52   25   26 2    
    53   25   27 1    
    54   27   28 1    
    55   27   29 1    
    56   27   95 1    
    57   28   96 1    
    58   28   97 1    
    59   28   98 1    
    60   29   30 am   BACKBONE|DICT|INTERRES
    61   29   99 1    
    62   30   31 2    
    63   30   32 1    
    64   32   33 1    
    65   32   34 1    
    66   32  100 1    
    67   33  101 1    
    68   33  102 1    
    69   33  103 1    
    70   34   35 am   BACKBONE|DICT|INTERRES
    71   34  104 1    
    72   35   36 2    
    73   37   38 2    
    74   37   39 am   BACKBONE|DICT|INTERRES
    75   39   40 1    
    76   39  105 1    
    77   40   41 1    
    78   40   42 1    
    79   40  106 1    
    80   41  107 1    
    81   41  108 1    
    82   41  109 1    
    83   42   43 2    
    84   42   44 am   BACKBONE|DICT|INTERRES
    85   44   45 1    
    86   44  110 1    
    87   45   46 1    
    88   45   47 1    
    89   45  111 1    
    90   46  112 1    
    91   46  113 1    
    92   46  114 1    
    93   47   48 2    
    94   47   49 am   BACKBONE|DICT|INTERRES
    95   49   50 1    
    96   49  115 1    
    97   50   51 1    
    98   50   52 1    
    99   50  116 1    
   100   51  117 1    
   101   51  118 1    
   102   51  119 1    
   103   52   53 2    
   104   52   54 am   BACKBONE|DICT|INTERRES
   105   54   55 1    
   106   54  120 1    
   107   55   56 1    
   108   55   57 1    
   109   55  121 1    
   110   56  122 1    
   111   56  123 1    
   112   56  124 1    
   113   57   58 2    
   114   57   59 am   BACKBONE|DICT|INTERRES
   115   59   60 1    
   116   59  125 1    
   117   60   61 1    
   118   60   62 1    
   119   60  126 1    
   120   61  127 1    
   121   61  128 1    
   122   61  129 1    
   123   62   63 2    
   124   62   64 am   BACKBONE|DICT|INTERRES
   125   64   65 1    
   126   64  130 1    
   127   65   66 1    
   128   65   69 1    
   129   65  131 1    
   130   66   67 am   BACKBONE|DICT|INTERRES
   131   66   68 2    
   132   67  132 1    
   133   67  133 1    
   134   69   70 1    
   135   69  134 1    
   136   69  135 1    
   137   70   71 1    
   138   71  136 1    
   139   71  137 1    
@<TRIPOS>SUBSTRUCTURE
     1 UNK         1 GROUP             0       ****    0 ROOT    
