@<TRIPOS>MOLECULE
3R136
137   139    1
SMALL
USER_CHARGES


@<TRIPOS>ATOM
      1 CA         33.8257   26.7599    0.2833 C.3       0 UNK        -0.1979 
      2 C          32.4025   26.2220    0.2968 C.2       0 UNK         0.4864 
      3 O          31.4595   26.9884    0.4926 O.2       0 UNK        -0.5359 
      4 N          32.2453   24.9059    0.1012 N.am      1 UNK        -0.4318 
      5 CA         30.9486   24.2236    0.0574 C.3       1 UNK         0.0824 
      6 C6         31.1131   22.6868    0.1893 C.3       12 UNK        -0.0944 
      7 S7         29.7095   21.9186    1.0664 S.3       12 UNK        -0.2672 
      8 C8         30.4114   21.6382    2.7255 C.3       12 UNK         0.0333 
      9 C9         30.4803   22.9228    3.5405 C.ar      12 UNK        -0.0807 
     10 C10        31.6012   23.7538    3.4606 C.ar      12 UNK        -0.0894 
     11 C11        31.6633   24.9395    4.1984 C.ar      12 UNK        -0.0804 
     12 C12        30.6023   25.2819    5.0433 C.ar      12 UNK        -0.0824 
     13 C13        29.4900   24.4409    5.1577 C.ar      12 UNK        -0.0762 
     14 C14        29.4295   23.2707    4.3941 C.ar      12 UNK        -0.0782 
     15 C15        28.3712   24.7604    6.1385 C.3       12 UNK         0.0230 
     16 S16        26.8871   25.4056    5.3072 S.3       12 UNK        -0.2608 
     17 C17        27.3416   27.1489    5.0204 C.3       12 UNK        -0.0989 
     18 CA         27.3021   27.5420    3.5238 C.3       5 UNK         0.0716 
     19 N          25.9948   27.2615    2.9112 N.am      5 UNK        -0.4135 
     20 C          25.7097   27.3878    1.6091 C.2       4 UNK         0.5031 
     21 O          26.5083   27.7973    0.7620 O.2       4 UNK        -0.5229 
     22 CA         24.2812   27.0358    1.1841 C.3       4 UNK         0.0329 
     23 CB         23.3773   28.2803    1.2040 C.3       4 UNK        -0.2001 
     24 N          24.3521   26.4970   -0.1670 N.am      4 UNK        -0.4303 
     25 C          23.6175   25.4902   -0.6520 C.2       3 UNK         0.5044 
     26 O          22.6598   24.9916   -0.0590 O.2       3 UNK        -0.5152 
     27 CA         24.0332   24.9222   -2.0250 C.3       3 UNK         0.0319 
     28 CB         23.1549   25.5146   -3.1390 C.3       3 UNK        -0.2001 
     29 N          25.4477   25.1387   -2.3595 N.am      3 UNK        -0.4354 
     30 C          26.4869   24.6441   -1.6706 C.2       2 UNK         0.4964 
     31 O          26.3656   23.8993   -0.6941 O.2       2 UNK        -0.5047 
     32 CA         27.8893   25.0722   -2.1303 C.3       2 UNK         0.0288 
     33 CB         27.9757   26.5837   -2.4398 C.3       2 UNK        -0.2113 
     34 N          28.8387   24.7180   -1.0788 N.am      2 UNK        -0.4145 
     35 C          30.1625   24.6060   -1.2143 C.2       1 UNK         0.5006 
     36 O          30.7612   24.7659   -2.2823 O.2       1 UNK        -0.5103 
     37 C          27.7294   29.0155    3.3677 C.2       5 UNK         0.5055 
     38 O          28.9237   29.2916    3.2749 O.2       5 UNK        -0.5220 
     39 N          26.7461   29.9280    3.3176 N.am      6 UNK        -0.4450 
     40 CA         26.8996   31.3823    3.1972 C.3       6 UNK         0.0367 
     41 CB         25.5047   32.0287    3.2361 C.3       6 UNK        -0.1929 
     42 C          27.6804   31.8699    1.9605 C.2       6 UNK         0.5070 
     43 O          28.0928   33.0299    1.9411 O.2       6 UNK        -0.5237 
     44 N          27.8837   30.9957    0.9641 N.am      7 UNK        -0.4739 
     45 CA         28.7139   31.2417   -0.2164 C.3       7 UNK         0.0276 
     46 CB         28.6020   30.0389   -1.1668 C.3       7 UNK        -0.1927 
     47 C          30.1919   31.5254    0.1157 C.2       7 UNK         0.5013 
     48 O          30.8056   32.3470   -0.5668 O.2       7 UNK        -0.5193 
     49 N          30.7279   30.8629    1.1511 N.am      8 UNK        -0.4253 
     50 CA         32.1075   30.9994    1.6218 C.3       8 UNK         0.0242 
     51 CB         33.1074   30.4564    0.5764 C.3       8 UNK        -0.2000 
     52 C          32.2381   30.2991    2.9807 C.2       8 UNK         0.4948 
     53 O          32.9810   29.3250    3.1041 O.2       8 UNK        -0.5275 
     54 N          31.5010   30.8038    3.9807 N.am      9 UNK        -0.4246 
     55 CA         31.3077   30.1884    5.3034 C.3       9 UNK         0.0261 
     56 CB         30.2931   31.0239    6.1015 C.3       9 UNK        -0.1959 
     57 C          32.5829   29.9491    6.1339 C.2       9 UNK         0.5033 
     58 O          32.5564   29.1174    7.0418 O.2       9 UNK        -0.5390 
     59 N          33.6719   30.6594    5.8117 N.am      10 UNK        -0.4215 
     60 CA         35.0064   30.4412    6.3760 C.3       10 UNK         0.0240 
     61 CB         35.8784   31.6738    6.0832 C.3       10 UNK        -0.1982 
     62 C          35.6927   29.1604    5.8568 C.2       10 UNK         0.4970 
     63 O          36.6614   28.7182    6.4756 O.2       10 UNK        -0.4916 
     64 N          35.2053   28.6074    4.7359 N.am      11 UNK        -0.4279 
     65 CA         35.7214   27.4150    4.0441 C.3       11 UNK         0.1003 
     66 C          37.1325   27.5891    3.4036 C.2       11 UNK         0.5709 
     67 N          37.6276   28.8067    3.2145 N.am      11 UNK        -0.7358 
     68 O          37.7781   26.6099    3.0367 O.2       11 UNK        -0.4999 
     69 C69        35.5937   26.1043    4.8777 C.3       12 UNK        -0.0954 
     70 S70        33.9316   25.7608    5.5562 S.3       12 UNK        -0.2268 
     71 C71        32.8777   25.8466    4.0752 C.3       12 UNK         0.0203 
     72 H72        34.5637   25.9636    0.3785 H         1 UNK         0.0888 
     73 H73        34.0152   27.2952   -0.6467 H         1 UNK         0.0888 
     74 H74        33.9692   27.4540    1.1102 H         1 UNK         0.0888 
     75 H75        33.0511   24.3351   -0.1086 H         1 UNK         0.3017 
     76 H76        30.3869   24.5911    0.9201 H         1 UNK         0.0873 
     77 H77        32.0277   22.4400    0.7294 H         1 UNK         0.0745 
     78 H78        31.2261   22.2078   -0.7857 H         1 UNK         0.0745 
     79 H79        31.4001   21.1844    2.6423 H         1 UNK         0.0705 
     80 H80        29.7906   20.9059    3.2440 H         1 UNK         0.0705 
     81 H81        32.4243   23.4827    2.8148 H         1 UNK         0.1334 
     82 H82        30.6585   26.1908    5.6270 H         1 UNK         0.1417 
     83 H83        28.5655   22.6246    4.4744 H         1 UNK         0.1562 
     84 H84        28.7068   25.4651    6.9010 H         1 UNK         0.0748 
     85 H85        28.0985   23.8501    6.6747 H         1 UNK         0.0748 
     86 H86        28.3359   27.3364    5.4310 H         1 UNK         0.0940 
     87 H87        26.6573   27.7710    5.6013 H         1 UNK         0.0940 
     88 H88        28.0430   26.9384    2.9941 H         1 UNK         0.0703 
     89 H89        25.2873   26.9008    3.5353 H         1 UNK         0.3081 
     90 H90        23.8853   26.2797    1.8660 H         1 UNK         0.0719 
     91 H91        23.3040   28.6971    2.2091 H         1 UNK         0.0809 
     92 H92        22.3651   28.0379    0.8797 H         1 UNK         0.0809 
     93 H93        23.7585   29.0657    0.5497 H         1 UNK         0.0809 
     94 H94        25.1507   26.8217   -0.6973 H         1 UNK         0.2990 
     95 H95        23.8637   23.8438   -1.9927 H         1 UNK         0.0690 
     96 H96        23.3731   25.0565   -4.1039 H         1 UNK         0.0788 
     97 H97        23.2978   26.5916   -3.2364 H         1 UNK         0.0788 
     98 H98        22.0970   25.3438   -2.9340 H         1 UNK         0.0788 
     99 H99        25.6355   25.7382   -3.1503 H         1 UNK         0.2993 
    100 H100       28.1309   24.5006   -3.0288 H         1 UNK         0.0949 
    101 H101       27.3507   26.8591   -3.2894 H         1 UNK         0.0767 
    102 H102       27.6581   27.1828   -1.5865 H         1 UNK         0.0767 
    103 H103       28.9928   26.8849   -2.6914 H         1 UNK         0.0767 
    104 H104       28.4008   24.4700   -0.1993 H         1 UNK         0.3013 
    105 H105       25.7980   29.5900    3.3889 H         1 UNK         0.3121 
    106 H106       27.4569   31.7206    4.0726 H         1 UNK         0.0774 
    107 H107       25.5748   33.1162    3.1842 H         1 UNK         0.0815 
    108 H108       24.8865   31.7026    2.3986 H         1 UNK         0.0815 
    109 H109       24.9780   31.7865    4.1593 H         1 UNK         0.0815 
    110 H110       27.5059   30.0622    1.0639 H         1 UNK         0.2987 
    111 H111       28.3152   32.1226   -0.7241 H         1 UNK         0.0949 
    112 H112       27.5689   29.8629   -1.4674 H         1 UNK         0.0806 
    113 H113       29.1816   30.2028   -2.0762 H         1 UNK         0.0806 
    114 H114       28.9758   29.1250   -0.7020 H         1 UNK         0.0806 
    115 H115       30.1425   30.2227    1.6805 H         1 UNK         0.3010 
    116 H116       32.3195   32.0583    1.7833 H         1 UNK         0.0829 
    117 H117       33.1334   31.0778   -0.3182 H         1 UNK         0.0813 
    118 H118       34.1232   30.4294    0.9729 H         1 UNK         0.0813 
    119 H119       32.8439   29.4453    0.2691 H         1 UNK         0.0813 
    120 H120       30.9215   31.6059    3.7796 H         1 UNK         0.3038 
    121 H121       30.8703   29.2029    5.1302 H         1 UNK         0.0769 
    122 H122       30.6475   32.0425    6.2637 H         1 UNK         0.0811 
    123 H123       30.1066   30.5828    7.0818 H         1 UNK         0.0811 
    124 H124       29.3334   31.0766    5.5878 H         1 UNK         0.0811 
    125 H125       33.5945   31.3288    5.0600 H         1 UNK         0.3204 
    126 H126       34.9092   30.3407    7.4592 H         1 UNK         0.0748 
    127 H127       36.8739   31.5601    6.5151 H         1 UNK         0.0771 
    128 H128       36.0046   31.8361    5.0121 H         1 UNK         0.0771 
    129 H129       35.4443   32.5776    6.5116 H         1 UNK         0.0771 
    130 H130       34.3962   29.0289    4.2864 H         1 UNK         0.2980 
    131 H131       35.0703   27.3057    3.1793 H         1 UNK         0.0545 
    132 H132       37.1054   29.6201    3.4956 H         1 UNK         0.3459 
    133 H133       38.5352   28.9092    2.7890 H         1 UNK         0.3459 
    134 H134       36.2965   26.1192    5.7119 H         1 UNK         0.0616 
    135 H135       35.8718   25.2422    4.2692 H         1 UNK         0.0616 
    136 H136       33.4604   25.5690    3.1962 H         1 UNK         0.0634 
    137 H137       32.5519   26.8756    3.9221 H         1 UNK         0.0634 
@<TRIPOS>BOND
     1    1    2 1    
     2    1   72 1    
     3    1   73 1    
     4    1   74 1    
     5    2    3 2    
     6    2    4 am   BACKBONE|DICT|INTERRES
     7    4    5 1    
     8    4   75 1    
     9    5    6 1    
    10    5   35 1    
    11    5   76 1    
    12    6    7 1    
    13    6   77 1    
    14    6   78 1    
    15    7    8 1    
    16    8    9 1    
    17    8   79 1    
    18    8   80 1    
    19    9   10 ar   
    20    9   14 ar   
    21   10   11 ar   
    22   10   81 1    
    23   11   12 ar   
    24   11   71 1    
    25   12   13 ar   
    26   12   82 1    
    27   13   14 ar   
    28   13   15 1    
    29   14   83 1    
    30   15   16 1    
    31   15   84 1    
    32   15   85 1    
    33   16   17 1    
    34   17   18 1    
    35   17   86 1    
    36   17   87 1    
    37   18   19 1    
    38   18   37 1    
    39   18   88 1    
    40   19   20 am   BACKBONE|DICT|INTERRES
    41   19   89 1    
    42   20   21 2    
    43   20   22 1    
    44   22   23 1    
    45   22   24 1    
    46   22   90 1    
    47   23   91 1    
    48   23   92 1    
    49   23   93 1    
    50   24   25 am   BACKBONE|DICT|INTERRES
    51   24   94 1    
    52   25   26 2    
    53   25   27 1    
    54   27   28 1    
    55   27   29 1    
    56   27   95 1    
    57   28   96 1    
    58   28   97 1    
    59   28   98 1    
    60   29   30 am   BACKBONE|DICT|INTERRES
    61   29   99 1    
    62   30   31 2    
    63   30   32 1    
    64   32   33 1    
    65   32   34 1    
    66   32  100 1    
    67   33  101 1    
    68   33  102 1    
    69   33  103 1    
    70   34   35 am   BACKBONE|DICT|INTERRES
    71   34  104 1    
    72   35   36 2    
    73   37   38 2    
    74   37   39 am   BACKBONE|DICT|INTERRES
    75   39   40 1    
    76   39  105 1    
    77   40   41 1    
    78   40   42 1    
    79   40  106 1    
    80   41  107 1    
    81   41  108 1    
    82   41  109 1    
    83   42   43 2    
    84   42   44 am   BACKBONE|DICT|INTERRES
    85   44   45 1    
    86   44  110 1    
    87   45   46 1    
    88   45   47 1    
    89   45  111 1    
    90   46  112 1    
    91   46  113 1    
    92   46  114 1    
    93   47   48 2    
    94   47   49 am   BACKBONE|DICT|INTERRES
    95   49   50 1    
    96   49  115 1    
    97   50   51 1    
    98   50   52 1    
    99   50  116 1    
   100   51  117 1    
   101   51  118 1    
   102   51  119 1    
   103   52   53 2    
   104   52   54 am   BACKBONE|DICT|INTERRES
   105   54   55 1    
   106   54  120 1    
   107   55   56 1    
   108   55   57 1    
   109   55  121 1    
   110   56  122 1    
   111   56  123 1    
   112   56  124 1    
   113   57   58 2    
   114   57   59 am   BACKBONE|DICT|INTERRES
   115   59   60 1    
   116   59  125 1    
   117   60   61 1    
   118   60   62 1    
   119   60  126 1    
   120   61  127 1    
   121   61  128 1    
   122   61  129 1    
   123   62   63 2    
   124   62   64 am   BACKBONE|DICT|INTERRES
   125   64   65 1    
   126   64  130 1    
   127   65   66 1    
   128   65   69 1    
   129   65  131 1    
   130   66   67 am   BACKBONE|DICT|INTERRES
   131   66   68 2    
   132   67  132 1    
   133   67  133 1    
   134   69   70 1    
   135   69  134 1    
   136   69  135 1    
   137   70   71 1    
   138   71  136 1    
   139   71  137 1    
@<TRIPOS>SUBSTRUCTURE
     1 UNK         1 GROUP             0       ****    0 ROOT    
