@<TRIPOS>MOLECULE
3R136
137   139    1
SMALL
USER_CHARGES


@<TRIPOS>ATOM
      1 CA         24.8259   21.4563    0.3381 C.3       0 UNK        -0.1979 
      2 C          26.0600   22.2914    0.0328 C.2       0 UNK         0.4864 
      3 O          25.9429   23.4986   -0.1728 O.2       0 UNK        -0.5359 
      4 N          27.2418   21.6601    0.0138 N.am      1 UNK        -0.4318 
      5 CA         28.5431   22.2796   -0.2745 C.3       1 UNK         0.0824 
      6 C6         29.6587   21.2020   -0.3315 C.3       12 UNK        -0.0944 
      7 S7         30.9874   21.6087   -1.5067 S.3       12 UNK        -0.2672 
      8 C8         32.4679   21.4591   -0.4551 C.3       12 UNK         0.0333 
      9 C9         32.6628   22.6747    0.4394 C.ar      12 UNK        -0.0807 
     10 C10        32.6412   22.5553    1.8334 C.ar      12 UNK        -0.0894 
     11 C11        32.8624   23.6719    2.6495 C.ar      12 UNK        -0.0804 
     12 C12        33.0975   24.9157    2.0508 C.ar      12 UNK        -0.0824 
     13 C13        33.1083   25.0475    0.6606 C.ar      12 UNK        -0.0762 
     14 C14        32.9009   23.9231   -0.1387 C.ar      12 UNK        -0.0782 
     15 C15        33.3365   26.4014    0.0113 C.3       12 UNK         0.0230 
     16 S16        31.7659   27.1209   -0.5522 S.3       12 UNK        -0.2608 
     17 C17        31.0228   27.6184    1.0347 C.3       12 UNK        -0.0989 
     18 CA         29.7607   28.4767    0.7943 C.3       5 UNK         0.0716 
     19 N          28.6202   27.6733    0.3428 N.am      5 UNK        -0.4135 
     20 C          27.5415   28.1783   -0.2722 C.2       4 UNK         0.5031 
     21 O          27.3870   29.3771   -0.5104 O.2       4 UNK        -0.5229 
     22 CA         26.4306   27.1830   -0.6453 C.3       4 UNK         0.0329 
     23 CB         26.8214   26.3560   -1.8807 C.3       4 UNK        -0.2001 
     24 N          26.0992   26.2898    0.4661 N.am      4 UNK        -0.4303 
     25 C          25.5513   26.6929    1.6212 C.2       3 UNK         0.5044 
     26 O          25.1752   27.8449    1.8327 O.2       3 UNK        -0.5152 
     27 CA         25.4387   25.6514    2.7464 C.3       3 UNK         0.0319 
     28 CB         24.1455   24.8325    2.6092 C.3       3 UNK        -0.2001 
     29 N          26.5960   24.7540    2.8081 N.am      3 UNK        -0.4354 
     30 C          27.8388   25.1362    3.1411 C.2       2 UNK         0.4964 
     31 O          28.1419   26.2887    3.4417 O.2       2 UNK        -0.5047 
     32 CA         28.9335   24.0575    3.1130 C.3       2 UNK         0.0288 
     33 CB         28.9688   23.2934    4.4459 C.3       2 UNK        -0.2113 
     34 N          28.7668   23.1058    2.0149 N.am      2 UNK        -0.4145 
     35 C          28.8761   23.4179    0.7150 C.2       1 UNK         0.5006 
     36 O          29.1437   24.5481    0.3004 O.2       1 UNK        -0.5103 
     37 C          29.4527   29.3750    2.0082 C.2       5 UNK         0.5055 
     38 O          30.2159   30.3132    2.2369 O.2       5 UNK        -0.5220 
     39 N          28.3600   29.1325    2.7484 N.am      6 UNK        -0.4450 
     40 CA         27.9017   29.9622    3.8737 C.3       6 UNK         0.0367 
     41 CB         26.6901   29.3029    4.5498 C.3       6 UNK        -0.1929 
     42 C          27.5791   31.4200    3.4947 C.2       6 UNK         0.5070 
     43 O          27.6380   32.2943    4.3588 O.2       6 UNK        -0.5237 
     44 N          27.2774   31.6641    2.2126 N.am      7 UNK        -0.4739 
     45 CA         27.1015   32.9973    1.6336 C.3       7 UNK         0.0276 
     46 CB         26.2582   32.8631    0.3541 C.3       7 UNK        -0.1927 
     47 C          28.4322   33.7191    1.3311 C.2       7 UNK         0.5013 
     48 O          28.3945   34.8944    0.9630 O.2       7 UNK        -0.5193 
     49 N          29.5690   33.0207    1.4555 N.am      8 UNK        -0.4253 
     50 CA         30.9050   33.5049    1.1239 C.3       8 UNK         0.0242 
     51 CB         31.3020   32.9691   -0.2690 C.3       8 UNK        -0.2000 
     52 C          31.8786   33.1237    2.2515 C.2       8 UNK         0.4948 
     53 O          31.8143   33.7226    3.3256 O.2       8 UNK        -0.5275 
     54 N          32.7755   32.1630    1.9862 N.am      9 UNK        -0.4246 
     55 CA         33.8696   31.7431    2.8678 C.3       9 UNK         0.0261 
     56 CB         34.8328   30.8482    2.0693 C.3       9 UNK        -0.1959 
     57 C          33.4377   31.0252    4.1592 C.2       9 UNK         0.5033 
     58 O          34.2226   31.0011    5.1089 O.2       9 UNK        -0.5390 
     59 N          32.2398   30.4198    4.1659 N.am      10 UNK        -0.4215 
     60 CA         31.6182   29.6856    5.2786 C.3       10 UNK         0.0240 
     61 CB         31.0975   30.6774    6.3393 C.3       10 UNK        -0.1982 
     62 C          32.4992   28.5702    5.8766 C.2       10 UNK         0.4970 
     63 O          32.4923   28.3658    7.0918 O.2       10 UNK        -0.4916 
     64 N          33.2482   27.8847    5.0017 N.am      11 UNK        -0.4279 
     65 CA         34.2264   26.8319    5.3274 C.3       11 UNK         0.1003 
     66 C          35.4938   27.3393    6.0839 C.2       11 UNK         0.5709 
     67 N          35.7507   28.6405    6.1669 N.am      11 UNK        -0.7358 
     68 O          36.2849   26.5373    6.5752 O.2       11 UNK        -0.4999 
     69 C69        33.5891   25.5773    5.9983 C.3       12 UNK        -0.0954 
     70 S70        32.1553   24.8972    5.0892 S.3       12 UNK        -0.2268 
     71 C71        32.8890   23.4998    4.1675 C.3       12 UNK         0.0203 
     72 H72        24.3853   21.7674    1.2846 H         1 UNK         0.0888 
     73 H73        24.0807   21.5911   -0.4453 H         1 UNK         0.0888 
     74 H74        25.0582   20.3936    0.4040 H         1 UNK         0.0888 
     75 H75        27.2621   20.6658    0.1905 H         1 UNK         0.3017 
     76 H76        28.4457   22.7350   -1.2627 H         1 UNK         0.0873 
     77 H77        30.0699   20.9914    0.6577 H         1 UNK         0.0745 
     78 H78        29.2467   20.2527   -0.6780 H         1 UNK         0.0745 
     79 H79        33.3424   21.3562   -1.0991 H         1 UNK         0.0705 
     80 H80        32.4125   20.5397    0.1300 H         1 UNK         0.0705 
     81 H81        32.4694   21.5874    2.2843 H         1 UNK         0.1334 
     82 H82        33.2668   25.7879    2.6631 H         1 UNK         0.1417 
     83 H83        32.9107   24.0222   -1.2159 H         1 UNK         0.1562 
     84 H84        34.0008   26.2872   -0.8467 H         1 UNK         0.0748 
     85 H85        33.8378   27.0878    0.6956 H         1 UNK         0.0748 
     86 H86        31.7813   28.1733    1.5907 H         1 UNK         0.0940 
     87 H87        30.7866   26.7326    1.6281 H         1 UNK         0.0940 
     88 H88        29.9915   29.1794   -0.0102 H         1 UNK         0.0703 
     89 H89        28.6930   26.6687    0.4660 H         1 UNK         0.3081 
     90 H90        25.5357   27.7585   -0.8915 H         1 UNK         0.0719 
     91 H91        27.6966   25.7330   -1.6930 H         1 UNK         0.0809 
     92 H92        26.0076   25.6994   -2.1892 H         1 UNK         0.0809 
     93 H93        27.0556   27.0038   -2.7264 H         1 UNK         0.0809 
     94 H94        26.2965   25.2996    0.3373 H         1 UNK         0.2990 
     95 H95        25.3935   26.1949    3.6928 H         1 UNK         0.0690 
     96 H96        24.1101   24.2823    1.6690 H         1 UNK         0.0788 
     97 H97        23.2712   25.4843    2.6343 H         1 UNK         0.0788 
     98 H98        24.0380   24.1168    3.4244 H         1 UNK         0.0788 
     99 H99        26.4417   23.7929    2.5444 H         1 UNK         0.2993 
    100 H100       29.8924   24.5628    2.9758 H         1 UNK         0.0949 
    101 H101       28.0415   22.7491    4.6286 H         1 UNK         0.0767 
    102 H102       29.7903   22.5773    4.4699 H         1 UNK         0.0767 
    103 H103       29.1153   23.9787    5.2820 H         1 UNK         0.0767 
    104 H104       28.5231   22.1587    2.2649 H         1 UNK         0.3013 
    105 H105       27.8297   28.2903    2.5616 H         1 UNK         0.3121 
    106 H106       28.7068   30.0001    4.6060 H         1 UNK         0.0774 
    107 H107       26.4011   29.8519    5.4470 H         1 UNK         0.0815 
    108 H108       25.8220   29.2838    3.8915 H         1 UNK         0.0815 
    109 H109       26.9081   28.2795    4.8546 H         1 UNK         0.0815 
    110 H110       27.2446   30.8830    1.5697 H         1 UNK         0.2987 
    111 H111       26.5511   33.6195    2.3429 H         1 UNK         0.0949 
    112 H112       26.7610   32.2518   -0.3968 H         1 UNK         0.0806 
    113 H113       25.2897   32.4080    0.5627 H         1 UNK         0.0806 
    114 H114       26.0657   33.8387   -0.0943 H         1 UNK         0.0806 
    115 H115       29.5309   32.0713    1.8152 H         1 UNK         0.3010 
    116 H116       30.9092   34.5961    1.0796 H         1 UNK         0.0829 
    117 H117       32.3122   33.2779   -0.5414 H         1 UNK         0.0813 
    118 H118       31.2532   31.8804   -0.3208 H         1 UNK         0.0813 
    119 H119       30.6346   33.3600   -1.0374 H         1 UNK         0.0813 
    120 H120       32.7316   31.7176    1.0813 H         1 UNK         0.3038 
    121 H121       34.4111   32.6419    3.1704 H         1 UNK         0.0769 
    122 H122       35.6771   30.5336    2.6849 H         1 UNK         0.0811 
    123 H123       35.2441   31.3760    1.2086 H         1 UNK         0.0811 
    124 H124       34.3400   29.9452    1.7064 H         1 UNK         0.0811 
    125 H125       31.6576   30.5045    3.3333 H         1 UNK         0.3204 
    126 H126       30.7607   29.1643    4.8557 H         1 UNK         0.0748 
    127 H127       30.5190   30.1650    7.1090 H         1 UNK         0.0771 
    128 H128       31.9166   31.1986    6.8361 H         1 UNK         0.0771 
    129 H129       30.4460   31.4287    5.8921 H         1 UNK         0.0771 
    130 H130       33.2032   28.1529    4.0314 H         1 UNK         0.2980 
    131 H131       34.6198   26.5060    4.3652 H         1 UNK         0.0545 
    132 H132       36.5819   28.9429    6.6488 H         1 UNK         0.3459 
    133 H133       35.1179   29.3325    5.7793 H         1 UNK         0.3459 
    134 H134       34.3340   24.7913    6.1280 H         1 UNK         0.0616 
    135 H135       33.2516   25.8216    7.0063 H         1 UNK         0.0616 
    136 H136       33.9214   23.3337    4.4751 H         1 UNK         0.0634 
    137 H137       32.3409   22.5995    4.4489 H         1 UNK         0.0634 
@<TRIPOS>BOND
     1    1    2 1    
     2    1   72 1    
     3    1   73 1    
     4    1   74 1    
     5    2    3 2    
     6    2    4 am   BACKBONE|DICT|INTERRES
     7    4    5 1    
     8    4   75 1    
     9    5    6 1    
    10    5   35 1    
    11    5   76 1    
    12    6    7 1    
    13    6   77 1    
    14    6   78 1    
    15    7    8 1    
    16    8    9 1    
    17    8   79 1    
    18    8   80 1    
    19    9   10 ar   
    20    9   14 ar   
    21   10   11 ar   
    22   10   81 1    
    23   11   12 ar   
    24   11   71 1    
    25   12   13 ar   
    26   12   82 1    
    27   13   14 ar   
    28   13   15 1    
    29   14   83 1    
    30   15   16 1    
    31   15   84 1    
    32   15   85 1    
    33   16   17 1    
    34   17   18 1    
    35   17   86 1    
    36   17   87 1    
    37   18   19 1    
    38   18   37 1    
    39   18   88 1    
    40   19   20 am   BACKBONE|DICT|INTERRES
    41   19   89 1    
    42   20   21 2    
    43   20   22 1    
    44   22   23 1    
    45   22   24 1    
    46   22   90 1    
    47   23   91 1    
    48   23   92 1    
    49   23   93 1    
    50   24   25 am   BACKBONE|DICT|INTERRES
    51   24   94 1    
    52   25   26 2    
    53   25   27 1    
    54   27   28 1    
    55   27   29 1    
    56   27   95 1    
    57   28   96 1    
    58   28   97 1    
    59   28   98 1    
    60   29   30 am   BACKBONE|DICT|INTERRES
    61   29   99 1    
    62   30   31 2    
    63   30   32 1    
    64   32   33 1    
    65   32   34 1    
    66   32  100 1    
    67   33  101 1    
    68   33  102 1    
    69   33  103 1    
    70   34   35 am   BACKBONE|DICT|INTERRES
    71   34  104 1    
    72   35   36 2    
    73   37   38 2    
    74   37   39 am   BACKBONE|DICT|INTERRES
    75   39   40 1    
    76   39  105 1    
    77   40   41 1    
    78   40   42 1    
    79   40  106 1    
    80   41  107 1    
    81   41  108 1    
    82   41  109 1    
    83   42   43 2    
    84   42   44 am   BACKBONE|DICT|INTERRES
    85   44   45 1    
    86   44  110 1    
    87   45   46 1    
    88   45   47 1    
    89   45  111 1    
    90   46  112 1    
    91   46  113 1    
    92   46  114 1    
    93   47   48 2    
    94   47   49 am   BACKBONE|DICT|INTERRES
    95   49   50 1    
    96   49  115 1    
    97   50   51 1    
    98   50   52 1    
    99   50  116 1    
   100   51  117 1    
   101   51  118 1    
   102   51  119 1    
   103   52   53 2    
   104   52   54 am   BACKBONE|DICT|INTERRES
   105   54   55 1    
   106   54  120 1    
   107   55   56 1    
   108   55   57 1    
   109   55  121 1    
   110   56  122 1    
   111   56  123 1    
   112   56  124 1    
   113   57   58 2    
   114   57   59 am   BACKBONE|DICT|INTERRES
   115   59   60 1    
   116   59  125 1    
   117   60   61 1    
   118   60   62 1    
   119   60  126 1    
   120   61  127 1    
   121   61  128 1    
   122   61  129 1    
   123   62   63 2    
   124   62   64 am   BACKBONE|DICT|INTERRES
   125   64   65 1    
   126   64  130 1    
   127   65   66 1    
   128   65   69 1    
   129   65  131 1    
   130   66   67 am   BACKBONE|DICT|INTERRES
   131   66   68 2    
   132   67  132 1    
   133   67  133 1    
   134   69   70 1    
   135   69  134 1    
   136   69  135 1    
   137   70   71 1    
   138   71  136 1    
   139   71  137 1    
@<TRIPOS>SUBSTRUCTURE
     1 UNK         1 GROUP             0       ****    0 ROOT    
