@<TRIPOS>MOLECULE
3R136
137   139    1
SMALL
USER_CHARGES


@<TRIPOS>ATOM
      1 CA         31.0666   24.1346    5.0007 C.3       0 UNK        -0.1979 
      2 C          29.8823   23.9380    4.0669 C.2       0 UNK         0.4864 
      3 O          29.4049   24.9046    3.4713 O.2       0 UNK        -0.5359 
      4 N          29.4039   22.6914    3.9458 N.am      1 UNK        -0.4318 
      5 CA         28.2804   22.2247    3.1175 C.3       1 UNK         0.0824 
      6 C6         28.4708   22.4404    1.5877 C.3       12 UNK        -0.0944 
      7 S7         29.9877   21.6404    0.9519 S.3       12 UNK        -0.2672 
      8 C8         30.1730   22.4150   -0.6955 C.3       12 UNK         0.0333 
      9 C9         31.0486   23.6707   -0.7312 C.ar      12 UNK        -0.0807 
     10 C10        31.0936   24.5694    0.3405 C.ar      12 UNK        -0.0894 
     11 C11        31.8606   25.7329    0.2696 C.ar      12 UNK        -0.0804 
     12 C12        32.6078   25.9975   -0.8772 C.ar      12 UNK        -0.0824 
     13 C13        32.5593   25.1286   -1.9708 C.ar      12 UNK        -0.0762 
     14 C14        31.7807   23.9670   -1.8895 C.ar      12 UNK        -0.0782 
     15 C15        33.3647   25.4341   -3.2285 C.3       12 UNK         0.0230 
     16 S16        32.4381   26.4510   -4.4295 S.3       12 UNK        -0.2608 
     17 C17        32.4724   28.1087   -3.6529 C.3       12 UNK        -0.0989 
     18 CA         31.0721   28.7425   -3.4232 C.3       5 UNK         0.0716 
     19 N          30.0556   27.7727   -2.9869 N.am      5 UNK        -0.4135 
     20 C          28.7377   28.0167   -2.9270 C.2       4 UNK         0.5031 
     21 O          28.2225   29.0866   -3.2545 O.2       4 UNK        -0.5229 
     22 CA         27.8376   26.9070   -2.3761 C.3       4 UNK         0.0329 
     23 CB         28.4713   25.5022   -2.4039 C.3       4 UNK        -0.2001 
     24 N          27.4691   27.2774   -1.0131 N.am      4 UNK        -0.4303 
     25 C          26.4010   26.8259   -0.3543 C.2       3 UNK         0.5044 
     26 O          25.5978   26.0047   -0.8045 O.2       3 UNK        -0.5152 
     27 CA         26.1887   27.3910    1.0505 C.3       3 UNK         0.0319 
     28 CB         25.1672   28.5432    1.0503 C.3       3 UNK        -0.2001 
     29 N          25.7558   26.3024    1.9109 N.am      3 UNK        -0.4354 
     30 C          25.8464   26.2826    3.2436 C.2       2 UNK         0.4964 
     31 O          26.1828   27.2488    3.9300 O.2       2 UNK        -0.5047 
     32 CA         25.6024   24.9200    3.8968 C.3       2 UNK         0.0288 
     33 CB         24.2378   24.3329    3.4664 C.3       2 UNK        -0.2113 
     34 N          26.7425   24.0869    3.5104 N.am      2 UNK        -0.4145 
     35 C          26.9220   22.7661    3.6155 C.2       1 UNK         0.5006 
     36 O          26.0966   21.9839    4.0892 O.2       1 UNK        -0.5103 
     37 C          31.1732   29.9448   -2.4545 C.2       5 UNK         0.5055 
     38 O          31.4878   31.0564   -2.8819 O.2       5 UNK        -0.5220 
     39 N          30.8760   29.6899   -1.1758 N.am      6 UNK        -0.4450 
     40 CA         30.6539   30.6499   -0.1031 C.3       6 UNK         0.0367 
     41 CB         31.9812   30.9444    0.6201 C.3       6 UNK        -0.1929 
     42 C          29.6181   30.0228    0.8434 C.2       6 UNK         0.5070 
     43 O          29.2850   28.8440    0.6807 O.2       6 UNK        -0.5237 
     44 N          29.1313   30.8054    1.8128 N.am      7 UNK        -0.4739 
     45 CA         28.3050   30.3202    2.9236 C.3       7 UNK         0.0276 
     46 CB         27.5619   31.5090    3.5525 C.3       7 UNK        -0.1927 
     47 C          29.1855   29.6307    3.9760 C.2       7 UNK         0.5013 
     48 O          30.3252   30.0627    4.1649 O.2       7 UNK        -0.5193 
     49 N          28.6448   28.6229    4.6786 N.am      8 UNK        -0.4253 
     50 CA         29.3492   27.8024    5.6786 C.3       8 UNK         0.0242 
     51 CB         28.3664   26.8212    6.3375 C.3       8 UNK        -0.2000 
     52 C          30.1197   28.5841    6.7601 C.2       8 UNK         0.4948 
     53 O          31.2033   28.1539    7.1575 O.2       8 UNK        -0.5275 
     54 N          29.5698   29.7312    7.1835 N.am      9 UNK        -0.4246 
     55 CA         30.1851   30.6536    8.1423 C.3       9 UNK         0.0261 
     56 CB         29.1535   31.7159    8.5553 C.3       9 UNK        -0.1959 
     57 C          31.4720   31.3267    7.6263 C.2       9 UNK         0.5033 
     58 O          32.3477   31.6361    8.4356 O.2       9 UNK        -0.5390 
     59 N          31.5688   31.5399    6.3067 N.am      10 UNK        -0.4215 
     60 CA         32.7680   32.0439    5.6332 C.3       10 UNK         0.0240 
     61 CB         32.3536   32.8908    4.4186 C.3       10 UNK        -0.1982 
     62 C          33.6879   30.8895    5.2040 C.2       10 UNK         0.4970 
     63 O          34.9088   31.0418    5.2515 O.2       10 UNK        -0.4916 
     64 N          33.0822   29.7652    4.8003 N.am      11 UNK        -0.4279 
     65 CA         33.7356   28.5008    4.4370 C.3       11 UNK         0.1003 
     66 C          34.6181   27.9097    5.5712 C.2       11 UNK         0.5709 
     67 N          34.1084   27.8281    6.7951 N.am      11 UNK        -0.7358 
     68 O          35.7647   27.5328    5.3414 O.2       11 UNK        -0.4999 
     69 C69        32.6800   27.4679    3.9600 C.3       12 UNK        -0.0954 
     70 S70        33.2299   26.4296    2.5714 S.3       12 UNK        -0.2268 
     71 C71        31.8518   26.7184    1.4224 C.3       12 UNK         0.0203 
     72 H72        31.9555   24.3865    4.4243 H         1 UNK         0.0888 
     73 H73        30.8678   24.9453    5.7004 H         1 UNK         0.0888 
     74 H74        31.2824   23.2368    5.5794 H         1 UNK         0.0888 
     75 H75        29.8464   21.9598    4.4842 H         1 UNK         0.3017 
     76 H76        28.2438   21.1456    3.2776 H         1 UNK         0.0873 
     77 H77        27.6252   22.0168    1.0424 H         1 UNK         0.0745 
     78 H78        28.4831   23.5017    1.3376 H         1 UNK         0.0745 
     79 H79        29.1884   22.6553   -1.0987 H         1 UNK         0.0705 
     80 H80        30.5981   21.6615   -1.3602 H         1 UNK         0.0705 
     81 H81        30.5251   24.3782    1.2358 H         1 UNK         0.1334 
     82 H82        33.2234   26.8845   -0.9085 H         1 UNK         0.1417 
     83 H83        31.7410   23.2939   -2.7356 H         1 UNK         0.1562 
     84 H84        33.6511   24.5003   -3.7148 H         1 UNK         0.0748 
     85 H85        34.2999   25.9332   -2.9696 H         1 UNK         0.0748 
     86 H86        33.0588   28.7628   -4.3011 H         1 UNK         0.0940 
     87 H87        33.0398   28.0609   -2.7253 H         1 UNK         0.0940 
     88 H88        30.7308   29.1361   -4.3833 H         1 UNK         0.0703 
     89 H89        30.3986   26.8574   -2.7316 H         1 UNK         0.3081 
     90 H90        26.9392   26.8928   -2.9969 H         1 UNK         0.0719 
     91 H91        28.8485   25.2498   -3.3961 H         1 UNK         0.0809 
     92 H92        27.7450   24.7357   -2.1338 H         1 UNK         0.0809 
     93 H93        29.2955   25.4336   -1.6987 H         1 UNK         0.0809 
     94 H94        28.0797   27.9450   -0.5463 H         1 UNK         0.2990 
     95 H95        27.1467   27.7443    1.4272 H         1 UNK         0.0690 
     96 H96        25.0378   28.9652    2.0469 H         1 UNK         0.0788 
     97 H97        24.1899   28.2114    0.6976 H         1 UNK         0.0788 
     98 H98        25.4954   29.3527    0.3972 H         1 UNK         0.0788 
     99 H99        25.4804   25.4635    1.4156 H         1 UNK         0.2993 
    100 H100       25.6154   25.0504    4.9803 H         1 UNK         0.0949 
    101 H101       24.2395   23.9985    2.4286 H         1 UNK         0.0767 
    102 H102       23.9580   23.4824    4.0877 H         1 UNK         0.0767 
    103 H103       23.4423   25.0720    3.5732 H         1 UNK         0.0767 
    104 H104       27.5651   24.6131    3.2160 H         1 UNK         0.3013 
    105 H105       30.5685   28.7573   -0.9277 H         1 UNK         0.3121 
    106 H106       30.2374   31.5708   -0.5165 H         1 UNK         0.0774 
    107 H107       31.8521   31.7212    1.3734 H         1 UNK         0.0815 
    108 H108       32.7424   31.2971   -0.0758 H         1 UNK         0.0815 
    109 H109       32.3746   30.0631    1.1275 H         1 UNK         0.0815 
    110 H110       29.4804   31.7490    1.8960 H         1 UNK         0.2987 
    111 H111       27.5692   29.6093    2.5500 H         1 UNK         0.0949 
    112 H112       28.2519   32.2473    3.9639 H         1 UNK         0.0806 
    113 H113       26.9293   32.0118    2.8207 H         1 UNK         0.0806 
    114 H114       26.9135   31.1789    4.3653 H         1 UNK         0.0806 
    115 H115       27.7043   28.3127    4.4440 H         1 UNK         0.3010 
    116 H116       30.0799   27.2098    5.1296 H         1 UNK         0.0829 
    117 H117       27.9751   26.1098    5.6115 H         1 UNK         0.0813 
    118 H118       28.8552   26.2382    7.1195 H         1 UNK         0.0813 
    119 H119       27.5212   27.3387    6.7924 H         1 UNK         0.0813 
    120 H120       28.6754   29.9994    6.7993 H         1 UNK         0.3038 
    121 H121       30.4544   30.0762    9.0294 H         1 UNK         0.0769 
    122 H122       28.8238   32.3126    7.7038 H         1 UNK         0.0811 
    123 H123       29.5748   32.4031    9.2906 H         1 UNK         0.0811 
    124 H124       28.2731   31.2602    9.0089 H         1 UNK         0.0811 
    125 H125       30.8303   31.1947    5.7019 H         1 UNK         0.3204 
    126 H126       33.3311   32.6854    6.3146 H         1 UNK         0.0748 
    127 H127       31.7613   33.7536    4.7234 H         1 UNK         0.0771 
    128 H128       33.2288   33.2687    3.8882 H         1 UNK         0.0771 
    129 H129       31.7621   32.3155    3.7064 H         1 UNK         0.0771 
    130 H130       32.0693   29.7719    4.7280 H         1 UNK         0.2980 
    131 H131       34.3952   28.7401    3.6008 H         1 UNK         0.0545 
    132 H132       33.1390   28.0809    6.9656 H         1 UNK         0.3459 
    133 H133       34.6699   27.4531    7.5421 H         1 UNK         0.3459 
    134 H134       32.3554   26.8171    4.7727 H         1 UNK         0.0616 
    135 H135       31.7782   27.9861    3.6375 H         1 UNK         0.0616 
    136 H136       31.9095   27.7383    1.0429 H         1 UNK         0.0634 
    137 H137       30.9031   26.6447    1.9575 H         1 UNK         0.0634 
@<TRIPOS>BOND
     1    1    2 1    
     2    1   72 1    
     3    1   73 1    
     4    1   74 1    
     5    2    3 2    
     6    2    4 am   BACKBONE|DICT|INTERRES
     7    4    5 1    
     8    4   75 1    
     9    5    6 1    
    10    5   35 1    
    11    5   76 1    
    12    6    7 1    
    13    6   77 1    
    14    6   78 1    
    15    7    8 1    
    16    8    9 1    
    17    8   79 1    
    18    8   80 1    
    19    9   10 ar   
    20    9   14 ar   
    21   10   11 ar   
    22   10   81 1    
    23   11   12 ar   
    24   11   71 1    
    25   12   13 ar   
    26   12   82 1    
    27   13   14 ar   
    28   13   15 1    
    29   14   83 1    
    30   15   16 1    
    31   15   84 1    
    32   15   85 1    
    33   16   17 1    
    34   17   18 1    
    35   17   86 1    
    36   17   87 1    
    37   18   19 1    
    38   18   37 1    
    39   18   88 1    
    40   19   20 am   BACKBONE|DICT|INTERRES
    41   19   89 1    
    42   20   21 2    
    43   20   22 1    
    44   22   23 1    
    45   22   24 1    
    46   22   90 1    
    47   23   91 1    
    48   23   92 1    
    49   23   93 1    
    50   24   25 am   BACKBONE|DICT|INTERRES
    51   24   94 1    
    52   25   26 2    
    53   25   27 1    
    54   27   28 1    
    55   27   29 1    
    56   27   95 1    
    57   28   96 1    
    58   28   97 1    
    59   28   98 1    
    60   29   30 am   BACKBONE|DICT|INTERRES
    61   29   99 1    
    62   30   31 2    
    63   30   32 1    
    64   32   33 1    
    65   32   34 1    
    66   32  100 1    
    67   33  101 1    
    68   33  102 1    
    69   33  103 1    
    70   34   35 am   BACKBONE|DICT|INTERRES
    71   34  104 1    
    72   35   36 2    
    73   37   38 2    
    74   37   39 am   BACKBONE|DICT|INTERRES
    75   39   40 1    
    76   39  105 1    
    77   40   41 1    
    78   40   42 1    
    79   40  106 1    
    80   41  107 1    
    81   41  108 1    
    82   41  109 1    
    83   42   43 2    
    84   42   44 am   BACKBONE|DICT|INTERRES
    85   44   45 1    
    86   44  110 1    
    87   45   46 1    
    88   45   47 1    
    89   45  111 1    
    90   46  112 1    
    91   46  113 1    
    92   46  114 1    
    93   47   48 2    
    94   47   49 am   BACKBONE|DICT|INTERRES
    95   49   50 1    
    96   49  115 1    
    97   50   51 1    
    98   50   52 1    
    99   50  116 1    
   100   51  117 1    
   101   51  118 1    
   102   51  119 1    
   103   52   53 2    
   104   52   54 am   BACKBONE|DICT|INTERRES
   105   54   55 1    
   106   54  120 1    
   107   55   56 1    
   108   55   57 1    
   109   55  121 1    
   110   56  122 1    
   111   56  123 1    
   112   56  124 1    
   113   57   58 2    
   114   57   59 am   BACKBONE|DICT|INTERRES
   115   59   60 1    
   116   59  125 1    
   117   60   61 1    
   118   60   62 1    
   119   60  126 1    
   120   61  127 1    
   121   61  128 1    
   122   61  129 1    
   123   62   63 2    
   124   62   64 am   BACKBONE|DICT|INTERRES
   125   64   65 1    
   126   64  130 1    
   127   65   66 1    
   128   65   69 1    
   129   65  131 1    
   130   66   67 am   BACKBONE|DICT|INTERRES
   131   66   68 2    
   132   67  132 1    
   133   67  133 1    
   134   69   70 1    
   135   69  134 1    
   136   69  135 1    
   137   70   71 1    
   138   71  136 1    
   139   71  137 1    
@<TRIPOS>SUBSTRUCTURE
     1 UNK         1 GROUP             0       ****    0 ROOT    
