@<TRIPOS>MOLECULE
3R136
137   139    1
SMALL
USER_CHARGES


@<TRIPOS>ATOM
      1 CA         28.6777   19.2344   -1.8095 C.3       0 UNK        -0.1979 
      2 C          28.7506   20.7529   -1.8609 C.2       0 UNK         0.4864 
      3 O          28.3586   21.3533   -2.8630 O.2       0 UNK        -0.5359 
      4 N          29.2315   21.3854   -0.7828 N.am      1 UNK        -0.4318 
      5 CA         29.4229   22.8368   -0.6432 C.3       1 UNK         0.0824 
      6 C6         30.5115   23.1595    0.4108 C.3       12 UNK        -0.0944 
      7 S7         32.1531   22.5017   -0.0475 S.3       12 UNK        -0.2672 
      8 C8         32.5149   21.3515    1.3194 C.3       12 UNK         0.0333 
      9 C9         32.5813   22.0735    2.6573 C.ar      12 UNK        -0.0807 
     10 C10        33.6857   22.8680    2.9772 C.ar      12 UNK        -0.0894 
     11 C11        33.7230   23.5776    4.1813 C.ar      12 UNK        -0.0804 
     12 C12        32.6511   23.4773    5.0744 C.ar      12 UNK        -0.0824 
     13 C13        31.5415   22.6861    4.7628 C.ar      12 UNK        -0.0762 
     14 C14        31.5217   21.9720    3.5626 C.ar      12 UNK        -0.0782 
     15 C15        30.3531   22.6091    5.7104 C.3       12 UNK         0.0230 
     16 S16        29.4947   24.2069    5.8922 S.3       12 UNK        -0.2608 
     17 C17        28.9633   24.6128    4.1874 C.3       12 UNK        -0.0989 
     18 CA         29.3220   26.0733    3.8134 C.3       5 UNK         0.0716 
     19 N          29.2199   26.3190    2.3722 N.am      5 UNK        -0.4135 
     20 C          29.7960   27.3595    1.7493 C.2       4 UNK         0.5031 
     21 O          30.6363   28.0840    2.2802 O.2       4 UNK        -0.5229 
     22 CA         29.3446   27.6932    0.3190 C.3       4 UNK         0.0329 
     23 CB         30.2277   27.0047   -0.7339 C.3       4 UNK        -0.2001 
     24 N          27.9386   27.3439    0.1015 N.am      4 UNK        -0.4303 
     25 C          26.9721   28.2081   -0.2405 C.2       3 UNK         0.5044 
     26 O          27.1788   29.3963   -0.4914 O.2       3 UNK        -0.5152 
     27 CA         25.5216   27.6756   -0.2851 C.3       3 UNK         0.0319 
     28 CB         24.6724   28.3576   -1.3800 C.3       3 UNK        -0.2001 
     29 N          25.4170   26.2122   -0.3670 N.am      3 UNK        -0.4354 
     30 C          25.8340   25.4266   -1.3698 C.2       2 UNK         0.4964 
     31 O          26.3203   25.8359   -2.4258 O.2       2 UNK        -0.5047 
     32 CA         25.7405   23.9135   -1.1209 C.3       2 UNK         0.0288 
     33 CB         24.8226   23.2350   -2.1512 C.3       2 UNK        -0.2113 
     34 N          27.0657   23.2969   -1.1716 N.am      2 UNK        -0.4145 
     35 C          28.0921   23.5748   -0.3560 C.2       1 UNK         0.5006 
     36 O          28.0113   24.3753    0.5831 O.2       1 UNK        -0.5103 
     37 C          28.4247   27.0811    4.5599 C.2       5 UNK         0.5055 
     38 O          27.2565   27.2302    4.1921 O.2       5 UNK        -0.5220 
     39 N          28.9818   27.7349    5.5912 N.am      6 UNK        -0.4450 
     40 CA         28.3350   28.7102    6.4815 C.3       6 UNK         0.0367 
     41 CB         27.2258   28.0365    7.3174 C.3       6 UNK        -0.1929 
     42 C          27.8458   29.9927    5.7750 C.2       6 UNK         0.5070 
     43 O          26.9950   30.7016    6.3160 O.2       6 UNK        -0.5237 
     44 N          28.3965   30.2785    4.5899 N.am      7 UNK        -0.4739 
     45 CA         28.1327   31.4815    3.8041 C.3       7 UNK         0.0276 
     46 CB         28.3288   31.1263    2.3202 C.3       7 UNK        -0.1927 
     47 C          29.0435   32.6450    4.2380 C.2       7 UNK         0.5013 
     48 O          29.9234   32.4683    5.0845 O.2       7 UNK        -0.5193 
     49 N          28.8287   33.8185    3.6282 N.am      8 UNK        -0.4253 
     50 CA         29.6372   35.0293    3.8263 C.3       8 UNK         0.0242 
     51 CB         28.8152   36.2502    3.3776 C.3       8 UNK        -0.2000 
     52 C          31.0010   34.9982    3.1020 C.2       8 UNK         0.4948 
     53 O          31.8094   35.9056    3.3044 O.2       8 UNK        -0.5275 
     54 N          31.2302   33.9776    2.2705 N.am      9 UNK        -0.4246 
     55 CA         32.4632   33.6951    1.5432 C.3       9 UNK         0.0261 
     56 CB         32.3326   34.2244    0.1033 C.3       9 UNK        -0.1959 
     57 C          32.6857   32.1762    1.5714 C.2       9 UNK         0.5033 
     58 O          31.8201   31.4478    2.0633 O.2       9 UNK        -0.5390 
     59 N          33.8319   31.7193    1.0482 N.am      10 UNK        -0.4215 
     60 CA         34.2735   30.3183    1.0177 C.3       10 UNK         0.0240 
     61 CB         33.3703   29.4653    0.0937 C.3       10 UNK        -0.1982 
     62 C          34.4264   29.7589    2.4453 C.2       10 UNK         0.4970 
     63 O          35.3704   30.1521    3.1329 O.2       10 UNK        -0.4916 
     64 N          33.5034   28.8878    2.8651 N.am      11 UNK        -0.4279 
     65 CA         33.4071   28.3348    4.2226 C.3       11 UNK         0.1003 
     66 C          32.2515   28.9829    5.0424 C.2       11 UNK         0.5709 
     67 N          31.6746   30.0975    4.6099 N.am      11 UNK        -0.7358 
     68 O          31.8730   28.4746    6.0956 O.2       11 UNK        -0.4999 
     69 C69        33.3269   26.7864    4.1883 C.3       12 UNK        -0.0954 
     70 S70        34.8543   26.0233    3.5463 S.3       12 UNK        -0.2268 
     71 C71        34.9104   24.4737    4.5009 C.3       12 UNK         0.0203 
     72 H72        29.2674   18.8039   -2.6183 H         1 UNK         0.0888 
     73 H73        27.6458   18.9041   -1.9262 H         1 UNK         0.0888 
     74 H74        29.0563   18.8394   -0.8669 H         1 UNK         0.0888 
     75 H75        29.5126   20.8377    0.0170 H         1 UNK         0.3017 
     76 H76        29.7757   23.2249   -1.6015 H         1 UNK         0.0873 
     77 H77        30.6325   24.2344    0.5453 H         1 UNK         0.0745 
     78 H78        30.2010   22.7767    1.3813 H         1 UNK         0.0745 
     79 H79        31.7616   20.5626    1.3374 H         1 UNK         0.0705 
     80 H80        33.4689   20.8593    1.1249 H         1 UNK         0.0705 
     81 H81        34.5032   22.9587    2.2748 H         1 UNK         0.1334 
     82 H82        32.6658   24.0331    6.0021 H         1 UNK         0.1417 
     83 H83        30.6647   21.3591    3.3182 H         1 UNK         0.1562 
     84 H84        30.7012   22.2831    6.6914 H         1 UNK         0.0748 
     85 H85        29.6335   21.8595    5.3774 H         1 UNK         0.0748 
     86 H86        27.8913   24.4286    4.0899 H         1 UNK         0.0940 
     87 H87        29.4440   23.9291    3.4882 H         1 UNK         0.0940 
     88 H88        30.3573   26.2463    4.1076 H         1 UNK         0.0703 
     89 H89        28.5781   25.7233    1.8608 H         1 UNK         0.3081 
     90 H90        29.4854   28.7707    0.2082 H         1 UNK         0.0719 
     91 H91        30.0248   25.9384   -0.8043 H         1 UNK         0.0809 
     92 H92        30.0580   27.4344   -1.7211 H         1 UNK         0.0809 
     93 H93        31.2873   27.1277   -0.5054 H         1 UNK         0.0809 
     94 H94        27.6828   26.3769    0.2635 H         1 UNK         0.2990 
     95 H95        25.0851   27.9474    0.6771 H         1 UNK         0.0690 
     96 H96        24.6123   29.4341   -1.2152 H         1 UNK         0.0788 
     97 H97        23.6514   27.9762   -1.3864 H         1 UNK         0.0788 
     98 H98        25.0942   28.2071   -2.3741 H         1 UNK         0.0788 
     99 H99        25.0491   25.7645    0.4618 H         1 UNK         0.2993 
    100 H100       25.3287   23.7351   -0.1252 H         1 UNK         0.0949 
    101 H101       23.8221   23.6692   -2.1281 H         1 UNK         0.0767 
    102 H102       25.2042   23.3468   -3.1672 H         1 UNK         0.0767 
    103 H103       24.7185   22.1688   -1.9484 H         1 UNK         0.0767 
    104 H104       27.2467   22.6499   -1.9340 H         1 UNK         0.3013 
    105 H105       29.9656   27.5811    5.7872 H         1 UNK         0.3121 
    106 H106       29.1127   29.0366    7.1736 H         1 UNK         0.0774 
    107 H107       27.5953   27.1428    7.8203 H         1 UNK         0.0815 
    108 H108       26.3740   27.7475    6.7012 H         1 UNK         0.0815 
    109 H109       26.8529   28.7100    8.0899 H         1 UNK         0.0815 
    110 H110       29.1141   29.6613    4.2350 H         1 UNK         0.2987 
    111 H111       27.0966   31.7931    3.9546 H         1 UNK         0.0949 
    112 H112       29.3391   30.7712    2.1176 H         1 UNK         0.0806 
    113 H113       27.6410   30.3365    2.0195 H         1 UNK         0.0806 
    114 H114       28.1400   31.9774    1.6656 H         1 UNK         0.0806 
    115 H115       28.0839   33.8844    2.9490 H         1 UNK         0.3010 
    116 H116       29.8454   35.1333    4.8935 H         1 UNK         0.0829 
    117 H117       27.8775   36.3229    3.9290 H         1 UNK         0.0813 
    118 H118       29.3628   37.1773    3.5534 H         1 UNK         0.0813 
    119 H119       28.5789   36.2092    2.3136 H         1 UNK         0.0813 
    120 H120       30.5657   33.2149    2.2479 H         1 UNK         0.3038 
    121 H121       33.3101   34.1720    2.0411 H         1 UNK         0.0769 
    122 H122       31.5239   33.7284   -0.4352 H         1 UNK         0.0811 
    123 H123       33.2499   34.0661   -0.4645 H         1 UNK         0.0811 
    124 H124       32.1308   35.2957    0.0941 H         1 UNK         0.0811 
    125 H125       34.4986   32.3926    0.6965 H         1 UNK         0.3204 
    126 H126       35.2743   30.3169    0.5831 H         1 UNK         0.0748 
    127 H127       33.3905   29.8449   -0.9277 H         1 UNK         0.0771 
    128 H128       33.7136   28.4304    0.0570 H         1 UNK         0.0771 
    129 H129       32.3284   29.4543    0.4157 H         1 UNK         0.0771 
    130 H130       32.7009   28.6941    2.2766 H         1 UNK         0.2980 
    131 H131       34.3067   28.5923    4.7835 H         1 UNK         0.0545 
    132 H132       30.9796   30.5732    5.1667 H         1 UNK         0.3459 
    133 H133       31.9122   30.4855    3.7012 H         1 UNK         0.3459 
    134 H134       33.1393   26.3907    5.1874 H         1 UNK         0.0616 
    135 H135       32.5014   26.4555    3.5589 H         1 UNK         0.0616 
    136 H136       35.8369   23.9476    4.2664 H         1 UNK         0.0634 
    137 H137       34.9498   24.7047    5.5666 H         1 UNK         0.0634 
@<TRIPOS>BOND
     1    1    2 1    
     2    1   72 1    
     3    1   73 1    
     4    1   74 1    
     5    2    3 2    
     6    2    4 am   BACKBONE|DICT|INTERRES
     7    4    5 1    
     8    4   75 1    
     9    5    6 1    
    10    5   35 1    
    11    5   76 1    
    12    6    7 1    
    13    6   77 1    
    14    6   78 1    
    15    7    8 1    
    16    8    9 1    
    17    8   79 1    
    18    8   80 1    
    19    9   10 ar   
    20    9   14 ar   
    21   10   11 ar   
    22   10   81 1    
    23   11   12 ar   
    24   11   71 1    
    25   12   13 ar   
    26   12   82 1    
    27   13   14 ar   
    28   13   15 1    
    29   14   83 1    
    30   15   16 1    
    31   15   84 1    
    32   15   85 1    
    33   16   17 1    
    34   17   18 1    
    35   17   86 1    
    36   17   87 1    
    37   18   19 1    
    38   18   37 1    
    39   18   88 1    
    40   19   20 am   BACKBONE|DICT|INTERRES
    41   19   89 1    
    42   20   21 2    
    43   20   22 1    
    44   22   23 1    
    45   22   24 1    
    46   22   90 1    
    47   23   91 1    
    48   23   92 1    
    49   23   93 1    
    50   24   25 am   BACKBONE|DICT|INTERRES
    51   24   94 1    
    52   25   26 2    
    53   25   27 1    
    54   27   28 1    
    55   27   29 1    
    56   27   95 1    
    57   28   96 1    
    58   28   97 1    
    59   28   98 1    
    60   29   30 am   BACKBONE|DICT|INTERRES
    61   29   99 1    
    62   30   31 2    
    63   30   32 1    
    64   32   33 1    
    65   32   34 1    
    66   32  100 1    
    67   33  101 1    
    68   33  102 1    
    69   33  103 1    
    70   34   35 am   BACKBONE|DICT|INTERRES
    71   34  104 1    
    72   35   36 2    
    73   37   38 2    
    74   37   39 am   BACKBONE|DICT|INTERRES
    75   39   40 1    
    76   39  105 1    
    77   40   41 1    
    78   40   42 1    
    79   40  106 1    
    80   41  107 1    
    81   41  108 1    
    82   41  109 1    
    83   42   43 2    
    84   42   44 am   BACKBONE|DICT|INTERRES
    85   44   45 1    
    86   44  110 1    
    87   45   46 1    
    88   45   47 1    
    89   45  111 1    
    90   46  112 1    
    91   46  113 1    
    92   46  114 1    
    93   47   48 2    
    94   47   49 am   BACKBONE|DICT|INTERRES
    95   49   50 1    
    96   49  115 1    
    97   50   51 1    
    98   50   52 1    
    99   50  116 1    
   100   51  117 1    
   101   51  118 1    
   102   51  119 1    
   103   52   53 2    
   104   52   54 am   BACKBONE|DICT|INTERRES
   105   54   55 1    
   106   54  120 1    
   107   55   56 1    
   108   55   57 1    
   109   55  121 1    
   110   56  122 1    
   111   56  123 1    
   112   56  124 1    
   113   57   58 2    
   114   57   59 am   BACKBONE|DICT|INTERRES
   115   59   60 1    
   116   59  125 1    
   117   60   61 1    
   118   60   62 1    
   119   60  126 1    
   120   61  127 1    
   121   61  128 1    
   122   61  129 1    
   123   62   63 2    
   124   62   64 am   BACKBONE|DICT|INTERRES
   125   64   65 1    
   126   64  130 1    
   127   65   66 1    
   128   65   69 1    
   129   65  131 1    
   130   66   67 am   BACKBONE|DICT|INTERRES
   131   66   68 2    
   132   67  132 1    
   133   67  133 1    
   134   69   70 1    
   135   69  134 1    
   136   69  135 1    
   137   70   71 1    
   138   71  136 1    
   139   71  137 1    
@<TRIPOS>SUBSTRUCTURE
     1 UNK         1 GROUP             0       ****    0 ROOT    
