@<TRIPOS>MOLECULE
3R136
137   139    1
SMALL
USER_CHARGES


@<TRIPOS>ATOM
      1 CA         27.6927   22.9974    6.4051 C.3       0 UNK        -0.1979 
      2 C          27.8562   22.5353    4.9645 C.2       0 UNK         0.4864 
      3 O          27.6889   21.3479    4.6799 O.2       0 UNK        -0.5359 
      4 N          28.1864   23.4614    4.0581 N.am      1 UNK        -0.4318 
      5 CA         28.3244   23.2170    2.6202 C.3       1 UNK         0.0824 
      6 C6         29.2086   24.2909    1.9347 C.3       12 UNK        -0.0944 
      7 S7         30.9083   24.2640    2.5993 S.3       12 UNK        -0.2672 
      8 C8         31.9373   24.0617    1.1114 C.3       12 UNK         0.0333 
      9 C9         32.2823   25.4030    0.4792 C.ar      12 UNK        -0.0807 
     10 C10        33.3921   26.1254    0.9307 C.ar      12 UNK        -0.0894 
     11 C11        33.7228   27.3544    0.3520 C.ar      12 UNK        -0.0804 
     12 C12        32.9468   27.8510   -0.6973 C.ar      12 UNK        -0.0824 
     13 C13        31.8151   27.1582   -1.1339 C.ar      12 UNK        -0.0762 
     14 C14        31.4966   25.9254   -0.5527 C.ar      12 UNK        -0.0782 
     15 C15        30.9097   27.7705   -2.1963 C.3       12 UNK         0.0230 
     16 S16        30.2438   29.3975   -1.6938 S.3       12 UNK        -0.2608 
     17 C17        29.6366   29.0702   -0.0013 C.3       12 UNK        -0.0989 
     18 CA         28.2197   29.6269    0.2689 C.3       5 UNK         0.0716 
     19 N          27.2358   29.1113   -0.6877 N.am      5 UNK        -0.4135 
     20 C          25.9383   29.4419   -0.7346 C.2       4 UNK         0.5031 
     21 O          25.4371   30.3405   -0.0574 O.2       4 UNK        -0.5229 
     22 CA         25.0289   28.6268   -1.6772 C.3       4 UNK         0.0329 
     23 CB         24.6421   29.4703   -2.9037 C.3       4 UNK        -0.2001 
     24 N          25.5576   27.3339   -2.1393 N.am      4 UNK        -0.4303 
     25 C          25.9854   26.3190   -1.3743 C.2       3 UNK         0.5044 
     26 O          26.1154   26.3819   -0.1489 O.2       3 UNK        -0.5152 
     27 CA         26.4030   25.0459   -2.1300 C.3       3 UNK         0.0319 
     28 CB         27.8108   25.2109   -2.7225 C.3       3 UNK        -0.2001 
     29 N          26.4022   23.8723   -1.2584 N.am      3 UNK        -0.4354 
     30 C          25.3075   23.2494   -0.8011 C.2       2 UNK         0.4964 
     31 O          24.1597   23.5335   -1.1463 O.2       2 UNK        -0.5047 
     32 CA         25.5335   22.1069    0.2061 C.3       2 UNK         0.0288 
     33 CB         25.5540   20.7490   -0.5154 C.3       2 UNK        -0.2113 
     34 N          26.7701   22.2615    0.9816 N.am      2 UNK        -0.4145 
     35 C          26.9290   23.1528    1.9708 C.2       1 UNK         0.5006 
     36 O          26.0363   23.9119    2.3571 O.2       1 UNK        -0.5103 
     37 C          27.8331   29.3248    1.7338 C.2       5 UNK         0.5055 
     38 O          28.0709   30.1667    2.6016 O.2       5 UNK        -0.5220 
     39 N          27.2539   28.1348    1.9725 N.am      6 UNK        -0.4450 
     40 CA         26.8058   27.5594    3.2483 C.3       6 UNK         0.0367 
     41 CB         25.6619   28.3866    3.8653 C.3       6 UNK        -0.1929 
     42 C          27.9245   27.3009    4.2757 C.2       6 UNK         0.5070 
     43 O          28.0384   26.1804    4.7722 O.2       6 UNK        -0.5237 
     44 N          28.7186   28.3267    4.5936 N.am      7 UNK        -0.4739 
     45 CA         29.8536   28.2539    5.5103 C.3       7 UNK         0.0276 
     46 CB         30.1632   29.6666    6.0294 C.3       7 UNK        -0.1927 
     47 C          31.0802   27.6490    4.8093 C.2       7 UNK         0.5013 
     48 O          31.3543   27.9994    3.6608 O.2       7 UNK        -0.5193 
     49 N          31.8036   26.7796    5.5277 N.am      8 UNK        -0.4253 
     50 CA         33.0095   26.0960    5.0440 C.3       8 UNK         0.0242 
     51 CB         33.1191   24.7302    5.7434 C.3       8 UNK        -0.2000 
     52 C          34.3028   26.9097    5.2365 C.2       8 UNK         0.4948 
     53 O          35.3412   26.5207    4.6998 O.2       8 UNK        -0.5275 
     54 N          34.2289   28.0067    5.9960 N.am      9 UNK        -0.4246 
     55 CA         35.2819   28.9952    6.1971 C.3       9 UNK         0.0261 
     56 CB         36.0609   28.6799    7.4850 C.3       9 UNK        -0.1959 
     57 C          34.5883   30.3579    6.2788 C.2       9 UNK         0.5033 
     58 O          33.4473   30.4144    6.7455 O.2       9 UNK        -0.5390 
     59 N          35.2694   31.4146    5.8086 N.am      10 UNK        -0.4215 
     60 CA         34.7204   32.7591    5.5589 C.3       10 UNK         0.0240 
     61 CB         34.3518   33.4710    6.8789 C.3       10 UNK        -0.1982 
     62 C          33.5532   32.6953    4.5508 C.2       10 UNK         0.4970 
     63 O          32.4529   33.1754    4.8279 O.2       10 UNK        -0.4916 
     64 N          33.8269   32.0315    3.4212 N.am      11 UNK        -0.4279 
     65 CA         32.8523   31.5736    2.4196 C.3       11 UNK         0.1003 
     66 C          32.1019   32.6914    1.6386 C.2       11 UNK         0.5709 
     67 N          32.5572   33.9385    1.6606 N.am      11 UNK        -0.7358 
     68 O          31.0879   32.4202    1.0011 O.2       11 UNK        -0.4999 
     69 C69        33.5002   30.5612    1.4360 C.3       12 UNK        -0.0954 
     70 S70        34.4218   29.2219    2.2720 S.3       12 UNK        -0.2268 
     71 C71        34.9028   28.1584    0.8751 C.3       12 UNK         0.0203 
     72 H72        27.9133   24.0588    6.5184 H         1 UNK         0.0888 
     73 H73        26.6704   22.8258    6.7405 H         1 UNK         0.0888 
     74 H74        28.3654   22.4409    7.0570 H         1 UNK         0.0888 
     75 H75        28.2446   24.4390    4.3416 H         1 UNK         0.3017 
     76 H76        28.8064   22.2458    2.4862 H         1 UNK         0.0873 
     77 H77        28.7956   25.2904    2.0821 H         1 UNK         0.0745 
     78 H78        29.2401   24.1320    0.8559 H         1 UNK         0.0745 
     79 H79        32.8578   23.5504    1.3973 H         1 UNK         0.0705 
     80 H80        31.4426   23.4063    0.3931 H         1 UNK         0.0705 
     81 H81        33.9913   25.7390    1.7440 H         1 UNK         0.1334 
     82 H82        33.1926   28.8051   -1.1433 H         1 UNK         0.1417 
     83 H83        30.6288   25.3772   -0.8882 H         1 UNK         0.1562 
     84 H84        30.0763   27.1082   -2.4274 H         1 UNK         0.0748 
     85 H85        31.4731   27.8886   -3.1227 H         1 UNK         0.0748 
     86 H86        30.3548   29.5081    0.6956 H         1 UNK         0.0940 
     87 H87        29.6522   27.9965    0.1935 H         1 UNK         0.0940 
     88 H88        28.2481   30.7126    0.1537 H         1 UNK         0.0703 
     89 H89        27.5604   28.3869   -1.3091 H         1 UNK         0.3081 
     90 H90        24.1186   28.4099   -1.1146 H         1 UNK         0.0719 
     91 H91        25.5070   29.6877   -3.5318 H         1 UNK         0.0809 
     92 H92        23.8977   28.9633   -3.5180 H         1 UNK         0.0809 
     93 H93        24.2103   30.4261   -2.6029 H         1 UNK         0.0809 
     94 H94        25.5249   27.1847   -3.1380 H         1 UNK         0.2990 
     95 H95        25.6939   24.8749   -2.9430 H         1 UNK         0.0690 
     96 H96        28.1043   24.3324   -3.2976 H         1 UNK         0.0788 
     97 H97        28.5532   25.3617   -1.9400 H         1 UNK         0.0788 
     98 H98        27.8621   26.0670   -3.3967 H         1 UNK         0.0788 
     99 H99        27.2970   23.5763   -0.9018 H         1 UNK         0.2993 
    100 H100       24.6892   22.1126    0.8995 H         1 UNK         0.0949 
    101 H101       25.6398   19.9246    0.1928 H         1 UNK         0.0767 
    102 H102       24.6333   20.5940   -1.0800 H         1 UNK         0.0767 
    103 H103       26.3840   20.6764   -1.2196 H         1 UNK         0.0767 
    104 H104       27.5396   21.6551    0.7348 H         1 UNK         0.3013 
    105 H105       27.0659   27.5392    1.1697 H         1 UNK         0.3121 
    106 H106       26.3930   26.5825    2.9904 H         1 UNK         0.0774 
    107 H107       25.2773   27.9054    4.7655 H         1 UNK         0.0815 
    108 H108       25.9858   29.3889    4.1468 H         1 UNK         0.0815 
    109 H109       24.8289   28.4873    3.1697 H         1 UNK         0.0815 
    110 H110       28.5984   29.1885    4.0657 H         1 UNK         0.2987 
    111 H111       29.5738   27.6262    6.3595 H         1 UNK         0.0949 
    112 H112       30.5247   30.3211    5.2343 H         1 UNK         0.0806 
    113 H113       29.2824   30.1314    6.4726 H         1 UNK         0.0806 
    114 H114       30.9320   29.6356    6.8014 H         1 UNK         0.0806 
    115 H115       31.5061   26.5532    6.4660 H         1 UNK         0.3010 
    116 H116       32.9077   25.9217    3.9715 H         1 UNK         0.0829 
    117 H117       32.2358   24.1188    5.5570 H         1 UNK         0.0813 
    118 H118       33.9797   24.1708    5.3739 H         1 UNK         0.0813 
    119 H119       33.2366   24.8356    6.8225 H         1 UNK         0.0813 
    120 H120       33.3268   28.3003    6.3497 H         1 UNK         0.3038 
    121 H121       35.9602   28.9919    5.3408 H         1 UNK         0.0769 
    122 H122       35.4110   28.6901    8.3611 H         1 UNK         0.0811 
    123 H123       36.8507   29.4128    7.6540 H         1 UNK         0.0811 
    124 H124       36.5336   27.6991    7.4304 H         1 UNK         0.0811 
    125 H125       36.2121   31.2608    5.4767 H         1 UNK         0.3204 
    126 H126       35.5118   33.3400    5.0826 H         1 UNK         0.0748 
    127 H127       35.2012   33.5048    7.5610 H         1 UNK         0.0771 
    128 H128       34.0446   34.5007    6.6916 H         1 UNK         0.0771 
    129 H129       33.5277   32.9775    7.3949 H         1 UNK         0.0771 
    130 H130       34.7616   31.6762    3.2895 H         1 UNK         0.2980 
    131 H131       32.0813   31.0342    2.9741 H         1 UNK         0.0545 
    132 H132       32.0612   34.6541    1.1535 H         1 UNK         0.3459 
    133 H133       33.3818   34.1712    2.1897 H         1 UNK         0.3459 
    134 H134       34.1852   31.0711    0.7561 H         1 UNK         0.0616 
    135 H135       32.7241   30.1114    0.8172 H         1 UNK         0.0616 
    136 H136       35.3380   28.7682    0.0819 H         1 UNK         0.0634 
    137 H137       35.6900   27.4805    1.2082 H         1 UNK         0.0634 
@<TRIPOS>BOND
     1    1    2 1    
     2    1   72 1    
     3    1   73 1    
     4    1   74 1    
     5    2    3 2    
     6    2    4 am   BACKBONE|DICT|INTERRES
     7    4    5 1    
     8    4   75 1    
     9    5    6 1    
    10    5   35 1    
    11    5   76 1    
    12    6    7 1    
    13    6   77 1    
    14    6   78 1    
    15    7    8 1    
    16    8    9 1    
    17    8   79 1    
    18    8   80 1    
    19    9   10 ar   
    20    9   14 ar   
    21   10   11 ar   
    22   10   81 1    
    23   11   12 ar   
    24   11   71 1    
    25   12   13 ar   
    26   12   82 1    
    27   13   14 ar   
    28   13   15 1    
    29   14   83 1    
    30   15   16 1    
    31   15   84 1    
    32   15   85 1    
    33   16   17 1    
    34   17   18 1    
    35   17   86 1    
    36   17   87 1    
    37   18   19 1    
    38   18   37 1    
    39   18   88 1    
    40   19   20 am   BACKBONE|DICT|INTERRES
    41   19   89 1    
    42   20   21 2    
    43   20   22 1    
    44   22   23 1    
    45   22   24 1    
    46   22   90 1    
    47   23   91 1    
    48   23   92 1    
    49   23   93 1    
    50   24   25 am   BACKBONE|DICT|INTERRES
    51   24   94 1    
    52   25   26 2    
    53   25   27 1    
    54   27   28 1    
    55   27   29 1    
    56   27   95 1    
    57   28   96 1    
    58   28   97 1    
    59   28   98 1    
    60   29   30 am   BACKBONE|DICT|INTERRES
    61   29   99 1    
    62   30   31 2    
    63   30   32 1    
    64   32   33 1    
    65   32   34 1    
    66   32  100 1    
    67   33  101 1    
    68   33  102 1    
    69   33  103 1    
    70   34   35 am   BACKBONE|DICT|INTERRES
    71   34  104 1    
    72   35   36 2    
    73   37   38 2    
    74   37   39 am   BACKBONE|DICT|INTERRES
    75   39   40 1    
    76   39  105 1    
    77   40   41 1    
    78   40   42 1    
    79   40  106 1    
    80   41  107 1    
    81   41  108 1    
    82   41  109 1    
    83   42   43 2    
    84   42   44 am   BACKBONE|DICT|INTERRES
    85   44   45 1    
    86   44  110 1    
    87   45   46 1    
    88   45   47 1    
    89   45  111 1    
    90   46  112 1    
    91   46  113 1    
    92   46  114 1    
    93   47   48 2    
    94   47   49 am   BACKBONE|DICT|INTERRES
    95   49   50 1    
    96   49  115 1    
    97   50   51 1    
    98   50   52 1    
    99   50  116 1    
   100   51  117 1    
   101   51  118 1    
   102   51  119 1    
   103   52   53 2    
   104   52   54 am   BACKBONE|DICT|INTERRES
   105   54   55 1    
   106   54  120 1    
   107   55   56 1    
   108   55   57 1    
   109   55  121 1    
   110   56  122 1    
   111   56  123 1    
   112   56  124 1    
   113   57   58 2    
   114   57   59 am   BACKBONE|DICT|INTERRES
   115   59   60 1    
   116   59  125 1    
   117   60   61 1    
   118   60   62 1    
   119   60  126 1    
   120   61  127 1    
   121   61  128 1    
   122   61  129 1    
   123   62   63 2    
   124   62   64 am   BACKBONE|DICT|INTERRES
   125   64   65 1    
   126   64  130 1    
   127   65   66 1    
   128   65   69 1    
   129   65  131 1    
   130   66   67 am   BACKBONE|DICT|INTERRES
   131   66   68 2    
   132   67  132 1    
   133   67  133 1    
   134   69   70 1    
   135   69  134 1    
   136   69  135 1    
   137   70   71 1    
   138   71  136 1    
   139   71  137 1    
@<TRIPOS>SUBSTRUCTURE
     1 UNK         1 GROUP             0       ****    0 ROOT    
