@<TRIPOS>MOLECULE
3R136
137   139    1
SMALL
USER_CHARGES


@<TRIPOS>ATOM
      1 CA         30.8141   21.7817    5.3166 C.3       0 UNK        -0.1979 
      2 C          29.5409   22.2912    4.6570 C.2       0 UNK         0.4864 
      3 O          28.4665   22.1688    5.2468 O.2       0 UNK        -0.5359 
      4 N          29.6475   22.8541    3.4451 N.am      1 UNK        -0.4318 
      5 CA         28.5126   23.3431    2.6543 C.3       1 UNK         0.0824 
      6 C6         27.8929   22.2373    1.7505 C.3       12 UNK        -0.0944 
      7 S7         28.6574   21.8846    0.1253 S.3       12 UNK        -0.2672 
      8 C8         30.3360   21.2745    0.5122 C.3       12 UNK         0.0333 
      9 C9         31.3595   22.4039    0.4946 C.ar      12 UNK        -0.0807 
     10 C10        32.2235   22.6038    1.5729 C.ar      12 UNK        -0.0894 
     11 C11        33.0829   23.7052    1.5956 C.ar      12 UNK        -0.0804 
     12 C12        33.0965   24.5917    0.5122 C.ar      12 UNK        -0.0824 
     13 C13        32.2709   24.3835   -0.5980 C.ar      12 UNK        -0.0762 
     14 C14        31.4290   23.2646   -0.6044 C.ar      12 UNK        -0.0782 
     15 C15        32.3078   25.4011   -1.7468 C.3       12 UNK         0.0230 
     16 S16        30.9625   25.2782   -2.9883 S.3       12 UNK        -0.2608 
     17 C17        29.4759   25.4757   -1.9421 C.3       12 UNK        -0.0989 
     18 CA         28.4770   26.6049   -2.3002 C.3       5 UNK         0.0716 
     19 N          27.4765   26.7139   -1.2379 N.am      5 UNK        -0.4135 
     20 C          26.2924   27.3310   -1.3335 C.2       4 UNK         0.5031 
     21 O          25.9266   27.9781   -2.3145 O.2       4 UNK        -0.5229 
     22 CA         25.3501   27.1795   -0.1302 C.3       4 UNK         0.0329 
     23 CB         24.6831   25.7934   -0.1401 C.3       4 UNK        -0.2001 
     24 N          26.0786   27.3565    1.1265 N.am      4 UNK        -0.4303 
     25 C          26.0831   28.4864    1.8459 C.2       3 UNK         0.5044 
     26 O          25.3896   29.4685    1.5825 O.2       3 UNK        -0.5152 
     27 CA         27.0322   28.5510    3.0571 C.3       3 UNK         0.0319 
     28 CB         26.2813   28.2194    4.3559 C.3       3 UNK        -0.2001 
     29 N          28.2079   27.6831    2.9428 N.am      3 UNK        -0.4354 
     30 C          29.1742   27.8261    2.0256 C.2       2 UNK         0.4964 
     31 O          29.2126   28.7504    1.2158 O.2       2 UNK        -0.5047 
     32 CA         30.2557   26.7363    1.9485 C.3       2 UNK         0.0288 
     33 CB         31.5256   27.2009    2.6720 C.3       2 UNK        -0.2113 
     34 N          29.8375   25.4182    2.4466 N.am      2 UNK        -0.4145 
     35 C          28.8047   24.6973    1.9720 C.2       1 UNK         0.5006 
     36 O          28.0611   25.1047    1.0743 O.2       1 UNK        -0.5103 
     37 C          29.1425   27.9557   -2.6449 C.2       5 UNK         0.5055 
     38 O          29.2497   28.2841   -3.8283 O.2       5 UNK        -0.5220 
     39 N          29.5776   28.7078   -1.6250 N.am      6 UNK        -0.4450 
     40 CA         30.3355   29.9551   -1.7787 C.3       6 UNK         0.0367 
     41 CB         31.6871   29.7895   -1.0601 C.3       6 UNK        -0.1929 
     42 C          29.5918   31.1853   -1.2307 C.2       6 UNK         0.5070 
     43 O          30.0570   32.3033   -1.4532 O.2       6 UNK        -0.5237 
     44 N          28.4848   30.9667   -0.5039 N.am      7 UNK        -0.4739 
     45 CA         27.7394   31.9460    0.3002 C.3       7 UNK         0.0276 
     46 CB         27.0927   33.0302   -0.5884 C.3       7 UNK        -0.1927 
     47 C          28.5830   32.5263    1.4562 C.2       7 UNK         0.5013 
     48 O          28.4207   33.6955    1.8124 O.2       7 UNK        -0.5193 
     49 N          29.4803   31.6995    2.0100 N.am      8 UNK        -0.4253 
     50 CA         30.3779   32.0507    3.1113 C.3       8 UNK         0.0242 
     51 CB         31.6390   31.1774    3.0074 C.3       8 UNK        -0.2000 
     52 C          29.7020   31.8441    4.4762 C.2       8 UNK         0.4948 
     53 O          28.6584   31.1953    4.5620 O.2       8 UNK        -0.5275 
     54 N          30.3370   32.3622    5.5358 N.am      9 UNK        -0.4246 
     55 CA         29.9208   32.1372    6.9248 C.3       9 UNK         0.0261 
     56 CB         30.6466   33.1313    7.8463 C.3       9 UNK        -0.1959 
     57 C          30.1612   30.6895    7.3953 C.2       9 UNK         0.5033 
     58 O          29.3675   30.1713    8.1820 O.2       9 UNK        -0.5390 
     59 N          31.2414   30.0706    6.9038 N.am      10 UNK        -0.4215 
     60 CA         31.6802   28.7048    7.1784 C.3       10 UNK         0.0240 
     61 CB         32.1661   28.5740    8.6378 C.3       10 UNK        -0.1982 
     62 C          32.8132   28.3638    6.2007 C.2       10 UNK         0.4970 
     63 O          33.3411   29.2656    5.5429 O.2       10 UNK        -0.4916 
     64 N          33.1765   27.0774    6.1375 N.am      11 UNK        -0.4279 
     65 CA         34.3624   26.5805    5.4221 C.3       11 UNK         0.1003 
     66 C          35.6855   27.0979    6.0524 C.2       11 UNK         0.5709 
     67 N          36.6949   27.3750    5.2382 N.am      11 UNK        -0.7358 
     68 O          35.8168   27.2084    7.2704 O.2       11 UNK        -0.4999 
     69 C69        34.3695   25.0310    5.3467 C.3       12 UNK        -0.0954 
     70 S70        33.0386   24.3933    4.2793 S.3       12 UNK        -0.2268 
     71 C71        33.9907   23.9399    2.7939 C.3       12 UNK         0.0203 
     72 H72        31.1125   22.4521    6.1221 H         1 UNK         0.0888 
     73 H73        30.6470   20.7924    5.7418 H         1 UNK         0.0888 
     74 H74        31.6410   21.7050    4.6135 H         1 UNK         0.0888 
     75 H75        30.5498   22.9197    2.9935 H         1 UNK         0.3017 
     76 H76        27.7257   23.6145    3.3614 H         1 UNK         0.0873 
     77 H77        26.8581   22.5113    1.5378 H         1 UNK         0.0745 
     78 H78        27.8240   21.2994    2.3039 H         1 UNK         0.0745 
     79 H79        30.6217   20.5367   -0.2385 H         1 UNK         0.0705 
     80 H80        30.3260   20.7541    1.4711 H         1 UNK         0.0705 
     81 H81        32.2205   21.9128    2.4034 H         1 UNK         0.1334 
     82 H82        33.7531   25.4510    0.5327 H         1 UNK         0.1417 
     83 H83        30.7851   23.0685   -1.4486 H         1 UNK         0.1562 
     84 H84        33.2612   25.2999   -2.2666 H         1 UNK         0.0748 
     85 H85        32.2897   26.4094   -1.3304 H         1 UNK         0.0748 
     86 H86        29.8062   25.6052   -0.9148 H         1 UNK         0.0940 
     87 H87        28.9435   24.5229   -1.9470 H         1 UNK         0.0940 
     88 H88        27.9484   26.2876   -3.2019 H         1 UNK         0.0703 
     89 H89        27.6635   26.1667   -0.4014 H         1 UNK         0.3081 
     90 H90        24.5628   27.9307   -0.2246 H         1 UNK         0.0719 
     91 H91        23.9672   25.6955    0.6760 H         1 UNK         0.0809 
     92 H92        24.1374   25.6295   -1.0704 H         1 UNK         0.0809 
     93 H93        25.4120   24.9874   -0.0422 H         1 UNK         0.0809 
     94 H94        26.6912   26.5991    1.4062 H         1 UNK         0.2990 
     95 H95        27.3843   29.5806    3.1171 H         1 UNK         0.0690 
     96 H96        25.4098   28.8644    4.4775 H         1 UNK         0.0788 
     97 H97        26.9170   28.3725    5.2285 H         1 UNK         0.0788 
     98 H98        25.9290   27.1873    4.3688 H         1 UNK         0.0788 
     99 H99        28.2618   26.9038    3.5813 H         1 UNK         0.2993 
    100 H100       30.5140   26.6202    0.8970 H         1 UNK         0.0949 
    101 H101       31.3653   27.3156    3.7439 H         1 UNK         0.0767 
    102 H102       32.3454   26.5030    2.5209 H         1 UNK         0.0767 
    103 H103       31.8692   28.1571    2.2790 H         1 UNK         0.0767 
    104 H104       30.3783   25.0399    3.2106 H         1 UNK         0.3013 
    105 H105       29.4159   28.4085   -0.6690 H         1 UNK         0.3121 
    106 H106       30.5381   30.1580   -2.8322 H         1 UNK         0.0774 
    107 H107       31.5582   29.5913    0.0044 H         1 UNK         0.0815 
    108 H108       32.2944   30.6910   -1.1521 H         1 UNK         0.0815 
    109 H109       32.2634   28.9689   -1.4870 H         1 UNK         0.0815 
    110 H110       28.2261   30.0022   -0.3484 H         1 UNK         0.2987 
    111 H111       26.9292   31.3957    0.7773 H         1 UNK         0.0949 
    112 H112       27.8376   33.6869   -1.0383 H         1 UNK         0.0806 
    113 H113       26.5059   32.5858   -1.3921 H         1 UNK         0.0806 
    114 H114       26.4183   33.6590   -0.0059 H         1 UNK         0.0806 
    115 H115       29.4967   30.7350    1.6972 H         1 UNK         0.3010 
    116 H116       30.6660   33.1001    3.0172 H         1 UNK         0.0829 
    117 H117       32.0762   31.2191    2.0096 H         1 UNK         0.0813 
    118 H118       32.4076   31.5049    3.7084 H         1 UNK         0.0813 
    119 H119       31.4176   30.1363    3.2381 H         1 UNK         0.0813 
    120 H120       31.1819   32.8969    5.3912 H         1 UNK         0.3038 
    121 H121       28.8481   32.3322    6.9943 H         1 UNK         0.0769 
    122 H122       31.7290   33.0012    7.8124 H         1 UNK         0.0811 
    123 H123       30.3355   32.9981    8.8835 H         1 UNK         0.0811 
    124 H124       30.4224   34.1626    7.5731 H         1 UNK         0.0811 
    125 H125       31.8370   30.5537    6.2416 H         1 UNK         0.3204 
    126 H126       30.8459   28.0240    6.9980 H         1 UNK         0.0748 
    127 H127       32.5245   27.5659    8.8491 H         1 UNK         0.0771 
    128 H128       32.9861   29.2616    8.8493 H         1 UNK         0.0771 
    129 H129       31.3670   28.7800    9.3497 H         1 UNK         0.0771 
    130 H130       32.7018   26.4030    6.7181 H         1 UNK         0.2980 
    131 H131       34.3113   26.9705    4.4031 H         1 UNK         0.0545 
    132 H132       37.5656   27.6968    5.6313 H         1 UNK         0.3459 
    133 H133       36.6027   27.2785    4.2392 H         1 UNK         0.3459 
    134 H134       35.3252   24.6617    4.9695 H         1 UNK         0.0616 
    135 H135       34.2545   24.5971    6.3415 H         1 UNK         0.0616 
    136 H136       34.5706   23.0387    2.9979 H         1 UNK         0.0634 
    137 H137       34.7098   24.7306    2.5738 H         1 UNK         0.0634 
@<TRIPOS>BOND
     1    1    2 1    
     2    1   72 1    
     3    1   73 1    
     4    1   74 1    
     5    2    3 2    
     6    2    4 am   BACKBONE|DICT|INTERRES
     7    4    5 1    
     8    4   75 1    
     9    5    6 1    
    10    5   35 1    
    11    5   76 1    
    12    6    7 1    
    13    6   77 1    
    14    6   78 1    
    15    7    8 1    
    16    8    9 1    
    17    8   79 1    
    18    8   80 1    
    19    9   10 ar   
    20    9   14 ar   
    21   10   11 ar   
    22   10   81 1    
    23   11   12 ar   
    24   11   71 1    
    25   12   13 ar   
    26   12   82 1    
    27   13   14 ar   
    28   13   15 1    
    29   14   83 1    
    30   15   16 1    
    31   15   84 1    
    32   15   85 1    
    33   16   17 1    
    34   17   18 1    
    35   17   86 1    
    36   17   87 1    
    37   18   19 1    
    38   18   37 1    
    39   18   88 1    
    40   19   20 am   BACKBONE|DICT|INTERRES
    41   19   89 1    
    42   20   21 2    
    43   20   22 1    
    44   22   23 1    
    45   22   24 1    
    46   22   90 1    
    47   23   91 1    
    48   23   92 1    
    49   23   93 1    
    50   24   25 am   BACKBONE|DICT|INTERRES
    51   24   94 1    
    52   25   26 2    
    53   25   27 1    
    54   27   28 1    
    55   27   29 1    
    56   27   95 1    
    57   28   96 1    
    58   28   97 1    
    59   28   98 1    
    60   29   30 am   BACKBONE|DICT|INTERRES
    61   29   99 1    
    62   30   31 2    
    63   30   32 1    
    64   32   33 1    
    65   32   34 1    
    66   32  100 1    
    67   33  101 1    
    68   33  102 1    
    69   33  103 1    
    70   34   35 am   BACKBONE|DICT|INTERRES
    71   34  104 1    
    72   35   36 2    
    73   37   38 2    
    74   37   39 am   BACKBONE|DICT|INTERRES
    75   39   40 1    
    76   39  105 1    
    77   40   41 1    
    78   40   42 1    
    79   40  106 1    
    80   41  107 1    
    81   41  108 1    
    82   41  109 1    
    83   42   43 2    
    84   42   44 am   BACKBONE|DICT|INTERRES
    85   44   45 1    
    86   44  110 1    
    87   45   46 1    
    88   45   47 1    
    89   45  111 1    
    90   46  112 1    
    91   46  113 1    
    92   46  114 1    
    93   47   48 2    
    94   47   49 am   BACKBONE|DICT|INTERRES
    95   49   50 1    
    96   49  115 1    
    97   50   51 1    
    98   50   52 1    
    99   50  116 1    
   100   51  117 1    
   101   51  118 1    
   102   51  119 1    
   103   52   53 2    
   104   52   54 am   BACKBONE|DICT|INTERRES
   105   54   55 1    
   106   54  120 1    
   107   55   56 1    
   108   55   57 1    
   109   55  121 1    
   110   56  122 1    
   111   56  123 1    
   112   56  124 1    
   113   57   58 2    
   114   57   59 am   BACKBONE|DICT|INTERRES
   115   59   60 1    
   116   59  125 1    
   117   60   61 1    
   118   60   62 1    
   119   60  126 1    
   120   61  127 1    
   121   61  128 1    
   122   61  129 1    
   123   62   63 2    
   124   62   64 am   BACKBONE|DICT|INTERRES
   125   64   65 1    
   126   64  130 1    
   127   65   66 1    
   128   65   69 1    
   129   65  131 1    
   130   66   67 am   BACKBONE|DICT|INTERRES
   131   66   68 2    
   132   67  132 1    
   133   67  133 1    
   134   69   70 1    
   135   69  134 1    
   136   69  135 1    
   137   70   71 1    
   138   71  136 1    
   139   71  137 1    
@<TRIPOS>SUBSTRUCTURE
     1 UNK         1 GROUP             0       ****    0 ROOT    
