@<TRIPOS>MOLECULE
3R136
137   139    1
SMALL
USER_CHARGES


@<TRIPOS>ATOM
      1 CA         26.4704   22.8552    2.5386 C.3       0 UNK        -0.1979 
      2 C          26.8750   22.5485    1.1042 C.2       0 UNK         0.4864 
      3 O          26.1957   21.7762    0.4269 O.2       0 UNK        -0.5359 
      4 N          27.9672   23.1647    0.6346 N.am      1 UNK        -0.4318 
      5 CA         28.5839   22.9786   -0.6867 C.3       1 UNK         0.0824 
      6 C6         29.9862   23.6516   -0.8165 C.3       12 UNK        -0.0944 
      7 S7         30.3451   24.9921    0.3788 S.3       12 UNK        -0.2672 
      8 C8         31.3000   24.0375    1.6025 C.3       12 UNK         0.0333 
      9 C9         31.6770   24.8821    2.8072 C.ar      12 UNK        -0.0807 
     10 C10        32.9546   25.4391    2.9055 C.ar      12 UNK        -0.0894 
     11 C11        33.3047   26.2155    4.0131 C.ar      12 UNK        -0.0804 
     12 C12        32.3631   26.4420    5.0214 C.ar      12 UNK        -0.0824 
     13 C13        31.0807   25.8898    4.9364 C.ar      12 UNK        -0.0762 
     14 C14        30.7531   25.0916    3.8345 C.ar      12 UNK        -0.0782 
     15 C15        30.0692   26.1582    6.0486 C.3       12 UNK         0.0230 
     16 S16        28.3793   26.5176    5.4525 S.3       12 UNK        -0.2608 
     17 C17        28.6643   27.8937    4.2873 C.3       12 UNK        -0.0989 
     18 CA         28.2325   27.5268    2.8454 C.3       5 UNK         0.0716 
     19 N          26.7875   27.2758    2.7764 N.am      5 UNK        -0.4135 
     20 C          26.1565   26.5534    1.8459 C.2       4 UNK         0.5031 
     21 O          26.7240   26.0208    0.8815 O.2       4 UNK        -0.5229 
     22 CA         24.6374   26.4100    2.0076 C.3       4 UNK         0.0329 
     23 CB         23.9150   27.6990    1.5729 C.3       4 UNK        -0.2001 
     24 N          24.2473   25.2992    1.1568 N.am      4 UNK        -0.4303 
     25 C          23.0866   24.6445    1.0764 C.2       3 UNK         0.5044 
     26 O          22.1100   24.8831    1.7879 O.2       3 UNK        -0.5152 
     27 CA         23.0324   23.5095    0.0276 C.3       3 UNK         0.0319 
     28 CB         21.6458   23.3793   -0.6376 C.3       3 UNK        -0.2001 
     29 N          24.1119   23.5939   -0.9744 N.am      3 UNK        -0.4354 
     30 C          24.2994   24.5662   -1.8852 C.2       2 UNK         0.4964 
     31 O          23.4953   25.4755   -2.0930 O.2       2 UNK        -0.5047 
     32 CA         25.6447   24.5546   -2.6298 C.3       2 UNK         0.0288 
     33 CB         25.9344   25.8752   -3.3665 C.3       2 UNK        -0.2113 
     34 N          26.7331   24.2691   -1.6885 N.am      2 UNK        -0.4145 
     35 C          27.6560   23.3166   -1.8730 C.2       1 UNK         0.5006 
     36 O          27.7729   22.6743   -2.9187 O.2       1 UNK        -0.5103 
     37 C          28.6816   28.5805    1.8073 C.2       5 UNK         0.5055 
     38 O          29.2517   29.6118    2.1678 O.2       5 UNK        -0.5220 
     39 N          28.4082   28.3027    0.5273 N.am      6 UNK        -0.4450 
     40 CA         28.6441   29.1899   -0.6144 C.3       6 UNK         0.0367 
     41 CB         27.9200   28.6162   -1.8409 C.3       6 UNK        -0.1929 
     42 C          30.1253   29.4599   -0.9350 C.2       6 UNK         0.5070 
     43 O          30.4079   30.3995   -1.6791 O.2       6 UNK        -0.5237 
     44 N          31.0410   28.6498   -0.3841 N.am      7 UNK        -0.4739 
     45 CA         32.4908   28.7896   -0.5494 C.3       7 UNK         0.0276 
     46 CB         33.1949   27.5949    0.1096 C.3       7 UNK        -0.1927 
     47 C          33.0566   30.1087    0.0078 C.2       7 UNK         0.5013 
     48 O          33.9743   30.6582   -0.6018 O.2       7 UNK        -0.5193 
     49 N          32.4889   30.5816    1.1285 N.am      8 UNK        -0.4253 
     50 CA         32.7977   31.8364    1.8309 C.3       8 UNK         0.0242 
     51 CB         34.3157   32.0737    2.0193 C.3       8 UNK        -0.2000 
     52 C          32.1333   31.8810    3.2132 C.2       8 UNK         0.4948 
     53 O          31.8818   32.9777    3.7136 O.2       8 UNK        -0.5275 
     54 N          31.9313   30.7123    3.8438 N.am      9 UNK        -0.4246 
     55 CA         31.4455   30.4840    5.2167 C.3       9 UNK         0.0261 
     56 CB         30.0637   31.1204    5.4627 C.3       9 UNK        -0.1959 
     57 C          32.4563   30.8972    6.3002 C.2       9 UNK         0.5033 
     58 O          32.7040   30.1183    7.2215 O.2       9 UNK        -0.5390 
     59 N          33.0866   32.0678    6.1306 N.am      10 UNK        -0.4215 
     60 CA         34.2195   32.5695    6.9193 C.3       10 UNK         0.0240 
     61 CB         34.5619   33.9928    6.4501 C.3       10 UNK        -0.1982 
     62 C          35.4691   31.6665    6.8605 C.2       10 UNK         0.4970 
     63 O          36.3228   31.7586    7.7430 O.2       10 UNK        -0.4916 
     64 N          35.5352   30.7977    5.8437 N.am      11 UNK        -0.4279 
     65 CA         36.4633   29.6669    5.7291 C.3       11 UNK         0.1003 
     66 C          36.3209   28.5849    6.8424 C.2       11 UNK         0.5709 
     67 N          35.2112   28.5112    7.5707 N.am      11 UNK        -0.7358 
     68 O          37.2419   27.7985    7.0485 O.2       11 UNK        -0.4999 
     69 C69        36.4003   29.0380    4.3086 C.3       12 UNK        -0.0954 
     70 S70        34.7118   28.5760    3.7749 S.3       12 UNK        -0.2268 
     71 C71        34.7040   26.7956    4.1356 C.3       12 UNK         0.0203 
     72 H72        26.6659   21.9909    3.1726 H         1 UNK         0.0888 
     73 H73        27.0195   23.7052    2.9437 H         1 UNK         0.0888 
     74 H74        25.4066   23.0810    2.5950 H         1 UNK         0.0888 
     75 H75        28.4415   23.8443    1.2130 H         1 UNK         0.3017 
     76 H76        28.7481   21.9018   -0.7709 H         1 UNK         0.0873 
     77 H77        30.1507   24.0556   -1.8178 H         1 UNK         0.0745 
     78 H78        30.7550   22.8846   -0.7101 H         1 UNK         0.0745 
     79 H79        30.7175   23.1745    1.9292 H         1 UNK         0.0705 
     80 H80        32.1973   23.6391    1.1261 H         1 UNK         0.0705 
     81 H81        33.6776   25.2670    2.1197 H         1 UNK         0.1334 
     82 H82        32.6359   27.0495    5.8744 H         1 UNK         0.1417 
     83 H83        29.7698   24.6472    3.7666 H         1 UNK         0.1562 
     84 H84        30.3957   26.9969    6.6661 H         1 UNK         0.0748 
     85 H85        30.0320   25.2881    6.7051 H         1 UNK         0.0748 
     86 H86        29.7196   28.1632    4.3074 H         1 UNK         0.0940 
     87 H87        28.1212   28.7706    4.6433 H         1 UNK         0.0940 
     88 H88        28.7456   26.6040    2.5700 H         1 UNK         0.0703 
     89 H89        26.2410   27.6861    3.5194 H         1 UNK         0.3081 
     90 H90        24.4026   26.1683    3.0460 H         1 UNK         0.0719 
     91 H91        24.2183   28.5491    2.1851 H         1 UNK         0.0809 
     92 H92        24.1323   27.9492    0.5334 H         1 UNK         0.0809 
     93 H93        22.8337   27.6033    1.6723 H         1 UNK         0.0809 
     94 H94        24.9952   25.0151    0.5393 H         1 UNK         0.2990 
     95 H95        23.2162   22.5874    0.5811 H         1 UNK         0.0690 
     96 H96        21.6336   22.5783   -1.3766 H         1 UNK         0.0788 
     97 H97        21.3433   24.3012   -1.1348 H         1 UNK         0.0788 
     98 H98        20.8792   23.1472    0.1026 H         1 UNK         0.0788 
     99 H99        24.8398   22.8940   -0.8693 H         1 UNK         0.2993 
    100 H100       25.5666   23.7615   -3.3767 H         1 UNK         0.0949 
    101 H101       25.8987   26.7242   -2.6857 H         1 UNK         0.0767 
    102 H102       26.9157   25.8612   -3.8412 H         1 UNK         0.0767 
    103 H103       25.1970   26.0552   -4.1497 H         1 UNK         0.0767 
    104 H104       26.7399   24.7850   -0.8146 H         1 UNK         0.3013 
    105 H105       27.9270   27.4272    0.3399 H         1 UNK         0.3121 
    106 H106       28.1948   30.1566   -0.3773 H         1 UNK         0.0774 
    107 H107       28.0775   29.2403   -2.7217 H         1 UNK         0.0815 
    108 H108       28.2710   27.6121   -2.0833 H         1 UNK         0.0815 
    109 H109       26.8450   28.5711   -1.6689 H         1 UNK         0.0815 
    110 H110       30.7155   27.8797    0.1831 H         1 UNK         0.2987 
    111 H111       32.7045   28.7665   -1.6202 H         1 UNK         0.0949 
    112 H112       32.8682   26.6483   -0.3209 H         1 UNK         0.0806 
    113 H113       34.2761   27.6553   -0.0221 H         1 UNK         0.0806 
    114 H114       33.0002   27.5666    1.1812 H         1 UNK         0.0806 
    115 H115       31.6740   30.0869    1.4702 H         1 UNK         0.3010 
    116 H116       32.3812   32.6562    1.2430 H         1 UNK         0.0829 
    117 H117       34.8222   31.1888    2.4024 H         1 UNK         0.0813 
    118 H118       34.5099   32.8884    2.7190 H         1 UNK         0.0813 
    119 H119       34.7991   32.3576    1.0854 H         1 UNK         0.0813 
    120 H120       32.2567   29.8783    3.3750 H         1 UNK         0.3038 
    121 H121       31.3320   29.4037    5.3070 H         1 UNK         0.0769 
    122 H122       29.3612   30.8638    4.6705 H         1 UNK         0.0811 
    123 H123       30.1158   32.2080    5.5178 H         1 UNK         0.0811 
    124 H124       29.6391   30.7697    6.4041 H         1 UNK         0.0811 
    125 H125       32.7822   32.6348    5.3417 H         1 UNK         0.3204 
    126 H126       33.9012   32.6141    7.9627 H         1 UNK         0.0748 
    127 H127       34.8635   34.0100    5.4018 H         1 UNK         0.0771 
    128 H128       33.7107   34.6642    6.5653 H         1 UNK         0.0771 
    129 H129       35.3835   34.4109    7.0337 H         1 UNK         0.0771 
    130 H130       34.7833   30.7976    5.1726 H         1 UNK         0.2980 
    131 H131       37.4662   30.0795    5.8525 H         1 UNK         0.0545 
    132 H132       35.1449   27.8090    8.2895 H         1 UNK         0.3459 
    133 H133       34.4313   29.1397    7.4099 H         1 UNK         0.3459 
    134 H134       37.0642   28.1750    4.2289 H         1 UNK         0.0616 
    135 H135       36.7789   29.7597    3.5834 H         1 UNK         0.0616 
    136 H136       35.0751   26.6174    5.1449 H         1 UNK         0.0634 
    137 H137       35.3946   26.2908    3.4584 H         1 UNK         0.0634 
@<TRIPOS>BOND
     1    1    2 1    
     2    1   72 1    
     3    1   73 1    
     4    1   74 1    
     5    2    3 2    
     6    2    4 am   BACKBONE|DICT|INTERRES
     7    4    5 1    
     8    4   75 1    
     9    5    6 1    
    10    5   35 1    
    11    5   76 1    
    12    6    7 1    
    13    6   77 1    
    14    6   78 1    
    15    7    8 1    
    16    8    9 1    
    17    8   79 1    
    18    8   80 1    
    19    9   10 ar   
    20    9   14 ar   
    21   10   11 ar   
    22   10   81 1    
    23   11   12 ar   
    24   11   71 1    
    25   12   13 ar   
    26   12   82 1    
    27   13   14 ar   
    28   13   15 1    
    29   14   83 1    
    30   15   16 1    
    31   15   84 1    
    32   15   85 1    
    33   16   17 1    
    34   17   18 1    
    35   17   86 1    
    36   17   87 1    
    37   18   19 1    
    38   18   37 1    
    39   18   88 1    
    40   19   20 am   BACKBONE|DICT|INTERRES
    41   19   89 1    
    42   20   21 2    
    43   20   22 1    
    44   22   23 1    
    45   22   24 1    
    46   22   90 1    
    47   23   91 1    
    48   23   92 1    
    49   23   93 1    
    50   24   25 am   BACKBONE|DICT|INTERRES
    51   24   94 1    
    52   25   26 2    
    53   25   27 1    
    54   27   28 1    
    55   27   29 1    
    56   27   95 1    
    57   28   96 1    
    58   28   97 1    
    59   28   98 1    
    60   29   30 am   BACKBONE|DICT|INTERRES
    61   29   99 1    
    62   30   31 2    
    63   30   32 1    
    64   32   33 1    
    65   32   34 1    
    66   32  100 1    
    67   33  101 1    
    68   33  102 1    
    69   33  103 1    
    70   34   35 am   BACKBONE|DICT|INTERRES
    71   34  104 1    
    72   35   36 2    
    73   37   38 2    
    74   37   39 am   BACKBONE|DICT|INTERRES
    75   39   40 1    
    76   39  105 1    
    77   40   41 1    
    78   40   42 1    
    79   40  106 1    
    80   41  107 1    
    81   41  108 1    
    82   41  109 1    
    83   42   43 2    
    84   42   44 am   BACKBONE|DICT|INTERRES
    85   44   45 1    
    86   44  110 1    
    87   45   46 1    
    88   45   47 1    
    89   45  111 1    
    90   46  112 1    
    91   46  113 1    
    92   46  114 1    
    93   47   48 2    
    94   47   49 am   BACKBONE|DICT|INTERRES
    95   49   50 1    
    96   49  115 1    
    97   50   51 1    
    98   50   52 1    
    99   50  116 1    
   100   51  117 1    
   101   51  118 1    
   102   51  119 1    
   103   52   53 2    
   104   52   54 am   BACKBONE|DICT|INTERRES
   105   54   55 1    
   106   54  120 1    
   107   55   56 1    
   108   55   57 1    
   109   55  121 1    
   110   56  122 1    
   111   56  123 1    
   112   56  124 1    
   113   57   58 2    
   114   57   59 am   BACKBONE|DICT|INTERRES
   115   59   60 1    
   116   59  125 1    
   117   60   61 1    
   118   60   62 1    
   119   60  126 1    
   120   61  127 1    
   121   61  128 1    
   122   61  129 1    
   123   62   63 2    
   124   62   64 am   BACKBONE|DICT|INTERRES
   125   64   65 1    
   126   64  130 1    
   127   65   66 1    
   128   65   69 1    
   129   65  131 1    
   130   66   67 am   BACKBONE|DICT|INTERRES
   131   66   68 2    
   132   67  132 1    
   133   67  133 1    
   134   69   70 1    
   135   69  134 1    
   136   69  135 1    
   137   70   71 1    
   138   71  136 1    
   139   71  137 1    
@<TRIPOS>SUBSTRUCTURE
     1 UNK         1 GROUP             0       ****    0 ROOT    
