@<TRIPOS>MOLECULE
3R136
137   139    1
SMALL
USER_CHARGES


@<TRIPOS>ATOM
      1 CA         29.2765   26.8841   -5.6914 C.3       0 UNK        -0.1979 
      2 C          28.8777   26.8957   -4.2236 C.2       0 UNK         0.4864 
      3 O          28.2799   27.8659   -3.7575 O.2       0 UNK        -0.5359 
      4 N          29.1774   25.8150   -3.4905 N.am      1 UNK        -0.4318 
      5 CA         28.9229   25.6355   -2.0526 C.3       1 UNK         0.0824 
      6 C6         29.8904   24.5703   -1.4658 C.3       12 UNK        -0.0944 
      7 S7         30.3196   24.8640    0.2802 S.3       12 UNK        -0.2672 
      8 C8         31.7124   23.7015    0.4474 C.3       12 UNK         0.0333 
      9 C9         32.3648   23.8217    1.8142 C.ar      12 UNK        -0.0807 
     10 C10        33.5151   24.5994    1.9824 C.ar      12 UNK        -0.0894 
     11 C11        34.0893   24.7521    3.2479 C.ar      12 UNK        -0.0804 
     12 C12        33.5091   24.1127    4.3460 C.ar      12 UNK        -0.0824 
     13 C13        32.3479   23.3530    4.1944 C.ar      12 UNK        -0.0762 
     14 C14        31.7987   23.1804    2.9196 C.ar      12 UNK        -0.0782 
     15 C15        31.6580   22.7763    5.4209 C.3       12 UNK         0.0230 
     16 S16        29.9520   23.3944    5.6017 S.3       12 UNK        -0.2608 
     17 C17        30.1388   25.2209    5.5979 C.3       12 UNK        -0.0989 
     18 CA         30.0184   25.8863    4.1909 C.3       5 UNK         0.0716 
     19 N          28.9658   25.3196    3.3292 N.am      5 UNK        -0.4135 
     20 C          27.6596   25.2012    3.5999 C.2       4 UNK         0.5031 
     21 O          27.1298   25.6761    4.6061 O.2       4 UNK        -0.5229 
     22 CA         26.8197   24.4300    2.5673 C.3       4 UNK         0.0329 
     23 CB         26.0137   23.2896    3.2207 C.3       4 UNK        -0.2001 
     24 N          25.9658   25.3191    1.7718 N.am      4 UNK        -0.4303 
     25 C          24.9249   26.0701    2.1722 C.2       3 UNK         0.5044 
     26 O          24.4490   26.0555    3.3070 O.2       3 UNK        -0.5152 
     27 CA         24.2961   27.0229    1.1362 C.3       3 UNK         0.0319 
     28 CB         24.5029   28.4880    1.5585 C.3       3 UNK        -0.2001 
     29 N          24.8103   26.8320   -0.2245 N.am      3 UNK        -0.4354 
     30 C          24.3695   25.8905   -1.0697 C.2       2 UNK         0.4964 
     31 O          23.4616   25.1017   -0.8058 O.2       2 UNK        -0.5047 
     32 CA         25.0678   25.8030   -2.4369 C.3       2 UNK         0.0288 
     33 CB         24.4066   26.7603   -3.4418 C.3       2 UNK        -0.2113 
     34 N          26.5132   26.0568   -2.4102 N.am      2 UNK        -0.4145 
     35 C          27.4298   25.3432   -1.7400 C.2       1 UNK         0.5006 
     36 O          27.1275   24.4750   -0.9200 O.2       1 UNK        -0.5103 
     37 C          29.9595   27.4271    4.2857 C.2       5 UNK         0.5055 
     38 O          30.9975   28.0851    4.1921 O.2       5 UNK        -0.5220 
     39 N          28.7488   27.9821    4.4278 N.am      6 UNK        -0.4450 
     40 CA         28.4602   29.4166    4.4263 C.3       6 UNK         0.0367 
     41 CB         26.9870   29.6445    4.8004 C.3       6 UNK        -0.1929 
     42 C          28.7895   30.0844    3.0810 C.2       6 UNK         0.5070 
     43 O          29.4218   31.1411    3.0614 O.2       6 UNK        -0.5237 
     44 N          28.3785   29.4348    1.9817 N.am      7 UNK        -0.4739 
     45 CA         28.5478   29.9181    0.6058 C.3       7 UNK         0.0276 
     46 CB         27.7212   29.0479   -0.3542 C.3       7 UNK        -0.1927 
     47 C          30.0098   29.9983    0.1386 C.2       7 UNK         0.5013 
     48 O          30.3214   30.8223   -0.7208 O.2       7 UNK        -0.5193 
     49 N          30.8921   29.1882    0.7363 N.am      8 UNK        -0.4253 
     50 CA         32.3350   29.1723    0.4816 C.3       8 UNK         0.0242 
     51 CB         32.8683   27.7639    0.7922 C.3       8 UNK        -0.2000 
     52 C          33.0838   30.2818    1.2526 C.2       8 UNK         0.4948 
     53 O          34.1748   30.0408    1.7686 O.2       8 UNK        -0.5275 
     54 N          32.4833   31.4798    1.3137 N.am      9 UNK        -0.4246 
     55 CA         32.9363   32.6757    2.0324 C.3       9 UNK         0.0261 
     56 CB         34.2201   33.2484    1.3929 C.3       9 UNK        -0.1959 
     57 C          33.0624   32.4489    3.5528 C.2       9 UNK         0.5033 
     58 O          34.0480   32.8797    4.1551 O.2       9 UNK        -0.5390 
     59 N          32.0432   31.7988    4.1371 N.am      10 UNK        -0.4215 
     60 CA         31.8739   31.5006    5.5628 C.3       10 UNK         0.0240 
     61 CB         31.5871   32.7957    6.3526 C.3       10 UNK        -0.1982 
     62 C          33.0291   30.6769    6.1605 C.2       10 UNK         0.4970 
     63 O          33.7757   31.1844    7.0011 O.2       10 UNK        -0.4916 
     64 N          33.1449   29.4133    5.7317 N.am      11 UNK        -0.4279 
     65 CA         34.0560   28.4285    6.3360 C.3       11 UNK         0.1003 
     66 C          33.6717   28.1037    7.8071 C.2       11 UNK         0.5709 
     67 N          34.6532   27.8922    8.6735 N.am      11 UNK        -0.7358 
     68 O          32.4970   27.9981    8.1564 O.2       11 UNK        -0.4999 
     69 C69        34.1207   27.1212    5.5109 C.3       12 UNK        -0.0954 
     70 S70        34.8736   27.3420    3.8679 S.3       12 UNK        -0.2268 
     71 C71        35.3200   25.6276    3.4395 C.3       12 UNK         0.0203 
     72 H72        29.7908   25.9638   -5.9674 H         1 UNK         0.0888 
     73 H73        29.9408   27.7210   -5.9049 H         1 UNK         0.0888 
     74 H74        28.3924   26.9812   -6.3208 H         1 UNK         0.0888 
     75 H75        29.6282   25.0338   -3.9459 H         1 UNK         0.3017 
     76 H76        29.1569   26.5901   -1.5777 H         1 UNK         0.0873 
     77 H77        30.8316   24.5873   -2.0185 H         1 UNK         0.0745 
     78 H78        29.5014   23.5568   -1.5839 H         1 UNK         0.0745 
     79 H79        32.4467   23.8958   -0.3360 H         1 UNK         0.0705 
     80 H80        31.3556   22.6821    0.2926 H         1 UNK         0.0705 
     81 H81        33.9535   25.1028    1.1319 H         1 UNK         0.1334 
     82 H82        33.9417   24.2394    5.3284 H         1 UNK         0.1417 
     83 H83        30.8966   22.5957    2.7995 H         1 UNK         0.1562 
     84 H84        32.2133   23.0083    6.3310 H         1 UNK         0.0748 
     85 H85        31.6358   21.6887    5.3407 H         1 UNK         0.0748 
     86 H86        31.0917   25.4831    6.0607 H         1 UNK         0.0940 
     87 H87        29.3695   25.6151    6.2647 H         1 UNK         0.0940 
     88 H88        30.9464   25.6824    3.6582 H         1 UNK         0.0703 
     89 H89        29.3051   24.9466    2.4514 H         1 UNK         0.3081 
     90 H90        27.5045   23.9654    1.8553 H         1 UNK         0.0719 
     91 H91        25.3155   23.6577    3.9729 H         1 UNK         0.0809 
     92 H92        25.4443   22.7308    2.4781 H         1 UNK         0.0809 
     93 H93        26.6796   22.5845    3.7199 H         1 UNK         0.0809 
     94 H94        26.2244   25.3688    0.7934 H         1 UNK         0.2990 
     95 H95        23.2210   26.8294    1.1322 H         1 UNK         0.0690 
     96 H96        24.0939   29.1800    0.8220 H         1 UNK         0.0788 
     97 H97        25.5556   28.7259    1.7026 H         1 UNK         0.0788 
     98 H98        23.9986   28.6919    2.5042 H         1 UNK         0.0788 
     99 H99        25.5452   27.4488   -0.5349 H         1 UNK         0.2993 
    100 H100       24.9290   24.7821   -2.7993 H         1 UNK         0.0949 
    101 H101       24.8120   26.6240   -4.4447 H         1 UNK         0.0767 
    102 H102       24.5518   27.8043   -3.1608 H         1 UNK         0.0767 
    103 H103       23.3316   26.5839   -3.5021 H         1 UNK         0.0767 
    104 H104       26.8667   26.7813   -3.0300 H         1 UNK         0.3013 
    105 H105       27.9627   27.3436    4.5363 H         1 UNK         0.3121 
    106 H106       29.0738   29.8812    5.1968 H         1 UNK         0.0774 
    107 H107       26.7424   30.7077    4.7964 H         1 UNK         0.0815 
    108 H108       26.3075   29.1495    4.1059 H         1 UNK         0.0815 
    109 H109       26.7713   29.2681    5.8005 H         1 UNK         0.0815 
    110 H110       27.8918   28.5602    2.1045 H         1 UNK         0.2987 
    111 H111       28.1550   30.9366    0.5606 H         1 UNK         0.0949 
    112 H112       27.8745   27.9858   -0.1681 H         1 UNK         0.0806 
    113 H113       26.6590   29.2665   -0.2621 H         1 UNK         0.0806 
    114 H114       27.9868   29.2423   -1.3948 H         1 UNK         0.0806 
    115 H115       30.5621   28.5920    1.4812 H         1 UNK         0.3010 
    116 H116       32.5087   29.3614   -0.5799 H         1 UNK         0.0829 
    117 H117       32.4001   27.0162    0.1530 H         1 UNK         0.0813 
    118 H118       33.9442   27.6981    0.6257 H         1 UNK         0.0813 
    119 H119       32.6786   27.4856    1.8296 H         1 UNK         0.0813 
    120 H120       31.6028   31.5701    0.8198 H         1 UNK         0.3038 
    121 H121       32.1494   33.4208    1.9054 H         1 UNK         0.0769 
    122 H122       34.4874   34.2049    1.8438 H         1 UNK         0.0811 
    123 H123       34.0892   33.4204    0.3247 H         1 UNK         0.0811 
    124 H124       35.0713   32.5796    1.5237 H         1 UNK         0.0811 
    125 H125       31.2660   31.5062    3.5490 H         1 UNK         0.3204 
    126 H126       30.9877   30.8748    5.6434 H         1 UNK         0.0748 
    127 H127       31.3925   32.5766    7.4033 H         1 UNK         0.0771 
    128 H128       32.4273   33.4901    6.3157 H         1 UNK         0.0771 
    129 H129       30.7097   33.3108    5.9615 H         1 UNK         0.0771 
    130 H130       32.4784   29.0457    5.0585 H         1 UNK         0.2980 
    131 H131       35.0533   28.8731    6.3429 H         1 UNK         0.0545 
    132 H132       35.6197   27.9649    8.3958 H         1 UNK         0.3459 
    133 H133       34.4226   27.6648    9.6280 H         1 UNK         0.3459 
    134 H134       34.7097   26.3721    6.0431 H         1 UNK         0.0616 
    135 H135       33.1212   26.7036    5.3835 H         1 UNK         0.0616 
    136 H136       35.9648   25.2126    4.2156 H         1 UNK         0.0634 
    137 H137       35.9136   25.6399    2.5244 H         1 UNK         0.0634 
@<TRIPOS>BOND
     1    1    2 1    
     2    1   72 1    
     3    1   73 1    
     4    1   74 1    
     5    2    3 2    
     6    2    4 am   BACKBONE|DICT|INTERRES
     7    4    5 1    
     8    4   75 1    
     9    5    6 1    
    10    5   35 1    
    11    5   76 1    
    12    6    7 1    
    13    6   77 1    
    14    6   78 1    
    15    7    8 1    
    16    8    9 1    
    17    8   79 1    
    18    8   80 1    
    19    9   10 ar   
    20    9   14 ar   
    21   10   11 ar   
    22   10   81 1    
    23   11   12 ar   
    24   11   71 1    
    25   12   13 ar   
    26   12   82 1    
    27   13   14 ar   
    28   13   15 1    
    29   14   83 1    
    30   15   16 1    
    31   15   84 1    
    32   15   85 1    
    33   16   17 1    
    34   17   18 1    
    35   17   86 1    
    36   17   87 1    
    37   18   19 1    
    38   18   37 1    
    39   18   88 1    
    40   19   20 am   BACKBONE|DICT|INTERRES
    41   19   89 1    
    42   20   21 2    
    43   20   22 1    
    44   22   23 1    
    45   22   24 1    
    46   22   90 1    
    47   23   91 1    
    48   23   92 1    
    49   23   93 1    
    50   24   25 am   BACKBONE|DICT|INTERRES
    51   24   94 1    
    52   25   26 2    
    53   25   27 1    
    54   27   28 1    
    55   27   29 1    
    56   27   95 1    
    57   28   96 1    
    58   28   97 1    
    59   28   98 1    
    60   29   30 am   BACKBONE|DICT|INTERRES
    61   29   99 1    
    62   30   31 2    
    63   30   32 1    
    64   32   33 1    
    65   32   34 1    
    66   32  100 1    
    67   33  101 1    
    68   33  102 1    
    69   33  103 1    
    70   34   35 am   BACKBONE|DICT|INTERRES
    71   34  104 1    
    72   35   36 2    
    73   37   38 2    
    74   37   39 am   BACKBONE|DICT|INTERRES
    75   39   40 1    
    76   39  105 1    
    77   40   41 1    
    78   40   42 1    
    79   40  106 1    
    80   41  107 1    
    81   41  108 1    
    82   41  109 1    
    83   42   43 2    
    84   42   44 am   BACKBONE|DICT|INTERRES
    85   44   45 1    
    86   44  110 1    
    87   45   46 1    
    88   45   47 1    
    89   45  111 1    
    90   46  112 1    
    91   46  113 1    
    92   46  114 1    
    93   47   48 2    
    94   47   49 am   BACKBONE|DICT|INTERRES
    95   49   50 1    
    96   49  115 1    
    97   50   51 1    
    98   50   52 1    
    99   50  116 1    
   100   51  117 1    
   101   51  118 1    
   102   51  119 1    
   103   52   53 2    
   104   52   54 am   BACKBONE|DICT|INTERRES
   105   54   55 1    
   106   54  120 1    
   107   55   56 1    
   108   55   57 1    
   109   55  121 1    
   110   56  122 1    
   111   56  123 1    
   112   56  124 1    
   113   57   58 2    
   114   57   59 am   BACKBONE|DICT|INTERRES
   115   59   60 1    
   116   59  125 1    
   117   60   61 1    
   118   60   62 1    
   119   60  126 1    
   120   61  127 1    
   121   61  128 1    
   122   61  129 1    
   123   62   63 2    
   124   62   64 am   BACKBONE|DICT|INTERRES
   125   64   65 1    
   126   64  130 1    
   127   65   66 1    
   128   65   69 1    
   129   65  131 1    
   130   66   67 am   BACKBONE|DICT|INTERRES
   131   66   68 2    
   132   67  132 1    
   133   67  133 1    
   134   69   70 1    
   135   69  134 1    
   136   69  135 1    
   137   70   71 1    
   138   71  136 1    
   139   71  137 1    
@<TRIPOS>SUBSTRUCTURE
     1 UNK         1 GROUP             0       ****    0 ROOT    
