@<TRIPOS>MOLECULE
3R136
137   139    1
SMALL
USER_CHARGES


@<TRIPOS>ATOM
      1 CA         25.6821   23.1799    2.9460 C.3       0 UNK        -0.1979 
      2 C          26.1508   22.7741    1.5567 C.2       0 UNK         0.4864 
      3 O          25.3259   22.4706    0.6935 O.2       0 UNK        -0.5359 
      4 N          27.4718   22.7674    1.3364 N.am      1 UNK        -0.4318 
      5 CA         28.1273   22.3795    0.0816 C.3       1 UNK         0.0824 
      6 C6         29.6458   22.1300    0.2674 C.3       12 UNK        -0.0944 
      7 S7         30.5343   23.4913    1.1047 S.3       12 UNK        -0.2672 
      8 C8         31.0825   22.6378    2.6131 C.3       12 UNK         0.0333 
      9 C9         31.9007   23.5581    3.5017 C.ar      12 UNK        -0.0807 
     10 C10        33.2834   23.6578    3.3245 C.ar      12 UNK        -0.0894 
     11 C11        34.0477   24.4778    4.1590 C.ar      12 UNK        -0.0804 
     12 C12        33.4127   25.2228    5.1574 C.ar      12 UNK        -0.0824 
     13 C13        32.0273   25.1487    5.3320 C.ar      12 UNK        -0.0762 
     14 C14        31.2799   24.2944    4.5141 C.ar      12 UNK        -0.0782 
     15 C15        31.3578   25.9935    6.4133 C.3       12 UNK         0.0230 
     16 S16        29.8401   26.8473    5.8600 S.3       12 UNK        -0.2608 
     17 C17        30.3718   27.6404    4.3052 C.3       12 UNK        -0.0989 
     18 CA         29.5474   27.1286    3.0988 C.3       5 UNK         0.0716 
     19 N          28.1449   27.5391    3.1940 N.am      5 UNK        -0.4135 
     20 C          27.1326   26.9232    2.5741 C.2       4 UNK         0.5031 
     21 O          27.2740   25.8846    1.9188 O.2       4 UNK        -0.5229 
     22 CA         25.7313   27.5570    2.7009 C.3       4 UNK         0.0329 
     23 CB         25.7538   29.0833    2.9079 C.3       4 UNK        -0.2001 
     24 N          24.9999   27.2607    1.4757 N.am      4 UNK        -0.4303 
     25 C          23.9621   26.4305    1.3506 C.2       3 UNK         0.5044 
     26 O          23.2890   26.0186    2.2959 O.2       3 UNK        -0.5152 
     27 CA         23.6625   25.9190   -0.0721 C.3       3 UNK         0.0319 
     28 CB         22.7789   26.9059   -0.8601 C.3       3 UNK        -0.2001 
     29 N          24.8774   25.5348   -0.8140 N.am      3 UNK        -0.4354 
     30 C          25.8592   26.3211   -1.2877 C.2       2 UNK         0.4964 
     31 O          25.8261   27.5521   -1.2541 O.2       2 UNK        -0.5047 
     32 CA         27.1176   25.6035   -1.7937 C.3       2 UNK         0.0288 
     33 CB         28.3000   26.5559   -2.0569 C.3       2 UNK        -0.2113 
     34 N          27.5157   24.6004   -0.8069 N.am      2 UNK        -0.4145 
     35 C          27.8471   23.3363   -1.0968 C.2       1 UNK         0.5006 
     36 O          27.9174   22.8980   -2.2470 O.2       1 UNK        -0.5103 
     37 C          30.1489   27.5723    1.7492 C.2       5 UNK         0.5055 
     38 O          29.5292   28.3447    1.0146 O.2       5 UNK        -0.5220 
     39 N          31.3407   27.0430    1.4374 N.am      6 UNK        -0.4450 
     40 CA         31.9854   27.1204    0.1224 C.3       6 UNK         0.0367 
     41 CB         33.3020   26.3290    0.1523 C.3       6 UNK        -0.1929 
     42 C          32.2019   28.5341   -0.4540 C.2       6 UNK         0.5070 
     43 O          32.1796   28.6699   -1.6783 O.2       6 UNK        -0.5237 
     44 N          32.3887   29.5513    0.4008 N.am      7 UNK        -0.4739 
     45 CA         32.3965   30.9570   -0.0166 C.3       7 UNK         0.0276 
     46 CB         33.5396   31.7264    0.6653 C.3       7 UNK        -0.1927 
     47 C          31.0410   31.6158    0.2699 C.2       7 UNK         0.5013 
     48 O          30.4456   32.1833   -0.6471 O.2       7 UNK        -0.5193 
     49 N          30.5842   31.5363    1.5269 N.am      8 UNK        -0.4253 
     50 CA         29.3364   32.1291    2.0125 C.3       8 UNK         0.0242 
     51 CB         29.3990   33.6764    1.9741 C.3       8 UNK        -0.2000 
     52 C          29.0466   31.5633    3.4082 C.2       8 UNK         0.4948 
     53 O          28.6472   30.4067    3.5189 O.2       8 UNK        -0.5275 
     54 N          29.2781   32.3653    4.4558 N.am      9 UNK        -0.4246 
     55 CA         29.1737   31.9556    5.8614 C.3       9 UNK         0.0261 
     56 CB         28.9521   33.2077    6.7272 C.3       9 UNK        -0.1959 
     57 C          30.4023   31.1652    6.3565 C.2       9 UNK         0.5033 
     58 O          30.3647   30.6274    7.4640 O.2       9 UNK        -0.5390 
     59 N          31.4655   31.1232    5.5460 N.am      10 UNK        -0.4215 
     60 CA         32.7147   30.4115    5.7873 C.3       10 UNK         0.0240 
     61 CB         33.7557   31.4027    6.3407 C.3       10 UNK        -0.1982 
     62 C          33.1896   29.7644    4.4780 C.2       10 UNK         0.4970 
     63 O          32.5590   29.9480    3.4291 O.2       10 UNK        -0.4916 
     64 N          34.2833   29.0008    4.5786 N.am      11 UNK        -0.4279 
     65 CA         34.9752   28.3572    3.4543 C.3       11 UNK         0.1003 
     66 C          35.6297   29.3701    2.4709 C.2       11 UNK         0.5709 
     67 N          35.9315   28.9433    1.2527 N.am      11 UNK        -0.7358 
     68 O          35.9071   30.5181    2.8132 O.2       11 UNK        -0.4999 
     69 C69        36.0116   27.3174    3.9644 C.3       12 UNK        -0.0954 
     70 S70        36.1089   25.8478    2.8876 S.3       12 UNK        -0.2268 
     71 C71        35.5617   24.5202    4.0051 C.3       12 UNK         0.0203 
     72 H72        24.9764   24.0057    2.8783 H         1 UNK         0.0888 
     73 H73        25.1830   22.3434    3.4339 H         1 UNK         0.0888 
     74 H74        26.5112   23.4995    3.5771 H         1 UNK         0.0888 
     75 H75        28.0964   23.0888    2.0620 H         1 UNK         0.3017 
     76 H76        27.6848   21.4251   -0.2128 H         1 UNK         0.0873 
     77 H77        29.7824   21.2099    0.8375 H         1 UNK         0.0745 
     78 H78        30.1308   21.9402   -0.6924 H         1 UNK         0.0745 
     79 H79        30.2140   22.2623    3.1565 H         1 UNK         0.0705 
     80 H80        31.6766   21.7643    2.3393 H         1 UNK         0.0705 
     81 H81        33.7672   23.0820    2.5471 H         1 UNK         0.1334 
     82 H82        33.9987   25.8552    5.8085 H         1 UNK         0.1417 
     83 H83        30.2109   24.2145    4.6575 H         1 UNK         0.1562 
     84 H84        32.0489   26.7491    6.7904 H         1 UNK         0.0748 
     85 H85        31.1114   25.3517    7.2600 H         1 UNK         0.0748 
     86 H86        31.4359   27.4592    4.1567 H         1 UNK         0.0940 
     87 H87        30.2720   28.7183    4.4175 H         1 UNK         0.0940 
     88 H88        29.5783   26.0375    3.1015 H         1 UNK         0.0703 
     89 H89        27.9968   28.4630    3.5853 H         1 UNK         0.3081 
     90 H90        25.2416   27.0928    3.5591 H         1 UNK         0.0719 
     91 H91        26.3478   29.5863    2.1431 H         1 UNK         0.0809 
     92 H92        24.7471   29.4997    2.8718 H         1 UNK         0.0809 
     93 H93        26.1681   29.3466    3.8816 H         1 UNK         0.0809 
     94 H94        25.4747   27.5148    0.6134 H         1 UNK         0.2990 
     95 H95        23.0930   24.9953    0.0443 H         1 UNK         0.0690 
     96 H96        22.5500   26.5253   -1.8555 H         1 UNK         0.0788 
     97 H97        23.2499   27.8825   -0.9735 H         1 UNK         0.0788 
     98 H98        21.8295   27.0661   -0.3475 H         1 UNK         0.0788 
     99 H99        25.0406   24.5363   -0.8474 H         1 UNK         0.2993 
    100 H100       26.8412   25.1282   -2.7374 H         1 UNK         0.0949 
    101 H101       29.1717   26.0136   -2.4235 H         1 UNK         0.0767 
    102 H102       28.0430   27.3042   -2.8075 H         1 UNK         0.0767 
    103 H103       28.5943   27.0869   -1.1513 H         1 UNK         0.0767 
    104 H104       27.4705   24.8894    0.1683 H         1 UNK         0.3013 
    105 H105       31.7644   26.4041    2.0952 H         1 UNK         0.3121 
    106 H106       31.3138   26.6085   -0.5705 H         1 UNK         0.0774 
    107 H107       33.7824   26.3328   -0.8271 H         1 UNK         0.0815 
    108 H108       34.0096   26.7498    0.8628 H         1 UNK         0.0815 
    109 H109       33.1346   25.2863    0.4238 H         1 UNK         0.0815 
    110 H110       32.3787   29.3698    1.3976 H         1 UNK         0.2987 
    111 H111       32.5671   31.0320   -1.0929 H         1 UNK         0.0949 
    112 H112       33.4769   31.6921    1.7522 H         1 UNK         0.0806 
    113 H113       34.5097   31.3269    0.3722 H         1 UNK         0.0806 
    114 H114       33.5270   32.7777    0.3747 H         1 UNK         0.0806 
    115 H115       31.1100   30.9878    2.1977 H         1 UNK         0.3010 
    116 H116       28.5231   31.7963    1.3640 H         1 UNK         0.0829 
    117 H117       29.4312   34.0465    0.9495 H         1 UNK         0.0813 
    118 H118       28.5144   34.1209    2.4327 H         1 UNK         0.0813 
    119 H119       30.2789   34.0664    2.4870 H         1 UNK         0.0813 
    120 H120       29.5886   33.3105    4.2800 H         1 UNK         0.3038 
    121 H121       28.3038   31.3046    5.9738 H         1 UNK         0.0769 
    122 H122       29.7954   33.8968    6.6659 H         1 UNK         0.0811 
    123 H123       28.8269   32.9397    7.7773 H         1 UNK         0.0811 
    124 H124       28.0538   33.7461    6.4243 H         1 UNK         0.0811 
    125 H125       31.3877   31.5384    4.6293 H         1 UNK         0.3204 
    126 H126       32.5493   29.6099    6.5106 H         1 UNK         0.0748 
    127 H127       33.3961   31.8847    7.2502 H         1 UNK         0.0771 
    128 H128       34.6914   30.9033    6.5938 H         1 UNK         0.0771 
    129 H129       33.9881   32.1864    5.6182 H         1 UNK         0.0771 
    130 H130       34.7474   28.9375    5.4717 H         1 UNK         0.2980 
    131 H131       34.1921   27.8340    2.9035 H         1 UNK         0.0545 
    132 H132       35.7807   27.9837    0.9874 H         1 UNK         0.3459 
    133 H133       36.3766   29.5780    0.6096 H         1 UNK         0.3459 
    134 H134       37.0093   27.7527    4.0505 H         1 UNK         0.0616 
    135 H135       35.7673   26.9895    4.9740 H         1 UNK         0.0616 
    136 H136       36.0426   24.6304    4.9782 H         1 UNK         0.0634 
    137 H137       35.9155   23.5688    3.6053 H         1 UNK         0.0634 
@<TRIPOS>BOND
     1    1    2 1    
     2    1   72 1    
     3    1   73 1    
     4    1   74 1    
     5    2    3 2    
     6    2    4 am   BACKBONE|DICT|INTERRES
     7    4    5 1    
     8    4   75 1    
     9    5    6 1    
    10    5   35 1    
    11    5   76 1    
    12    6    7 1    
    13    6   77 1    
    14    6   78 1    
    15    7    8 1    
    16    8    9 1    
    17    8   79 1    
    18    8   80 1    
    19    9   10 ar   
    20    9   14 ar   
    21   10   11 ar   
    22   10   81 1    
    23   11   12 ar   
    24   11   71 1    
    25   12   13 ar   
    26   12   82 1    
    27   13   14 ar   
    28   13   15 1    
    29   14   83 1    
    30   15   16 1    
    31   15   84 1    
    32   15   85 1    
    33   16   17 1    
    34   17   18 1    
    35   17   86 1    
    36   17   87 1    
    37   18   19 1    
    38   18   37 1    
    39   18   88 1    
    40   19   20 am   BACKBONE|DICT|INTERRES
    41   19   89 1    
    42   20   21 2    
    43   20   22 1    
    44   22   23 1    
    45   22   24 1    
    46   22   90 1    
    47   23   91 1    
    48   23   92 1    
    49   23   93 1    
    50   24   25 am   BACKBONE|DICT|INTERRES
    51   24   94 1    
    52   25   26 2    
    53   25   27 1    
    54   27   28 1    
    55   27   29 1    
    56   27   95 1    
    57   28   96 1    
    58   28   97 1    
    59   28   98 1    
    60   29   30 am   BACKBONE|DICT|INTERRES
    61   29   99 1    
    62   30   31 2    
    63   30   32 1    
    64   32   33 1    
    65   32   34 1    
    66   32  100 1    
    67   33  101 1    
    68   33  102 1    
    69   33  103 1    
    70   34   35 am   BACKBONE|DICT|INTERRES
    71   34  104 1    
    72   35   36 2    
    73   37   38 2    
    74   37   39 am   BACKBONE|DICT|INTERRES
    75   39   40 1    
    76   39  105 1    
    77   40   41 1    
    78   40   42 1    
    79   40  106 1    
    80   41  107 1    
    81   41  108 1    
    82   41  109 1    
    83   42   43 2    
    84   42   44 am   BACKBONE|DICT|INTERRES
    85   44   45 1    
    86   44  110 1    
    87   45   46 1    
    88   45   47 1    
    89   45  111 1    
    90   46  112 1    
    91   46  113 1    
    92   46  114 1    
    93   47   48 2    
    94   47   49 am   BACKBONE|DICT|INTERRES
    95   49   50 1    
    96   49  115 1    
    97   50   51 1    
    98   50   52 1    
    99   50  116 1    
   100   51  117 1    
   101   51  118 1    
   102   51  119 1    
   103   52   53 2    
   104   52   54 am   BACKBONE|DICT|INTERRES
   105   54   55 1    
   106   54  120 1    
   107   55   56 1    
   108   55   57 1    
   109   55  121 1    
   110   56  122 1    
   111   56  123 1    
   112   56  124 1    
   113   57   58 2    
   114   57   59 am   BACKBONE|DICT|INTERRES
   115   59   60 1    
   116   59  125 1    
   117   60   61 1    
   118   60   62 1    
   119   60  126 1    
   120   61  127 1    
   121   61  128 1    
   122   61  129 1    
   123   62   63 2    
   124   62   64 am   BACKBONE|DICT|INTERRES
   125   64   65 1    
   126   64  130 1    
   127   65   66 1    
   128   65   69 1    
   129   65  131 1    
   130   66   67 am   BACKBONE|DICT|INTERRES
   131   66   68 2    
   132   67  132 1    
   133   67  133 1    
   134   69   70 1    
   135   69  134 1    
   136   69  135 1    
   137   70   71 1    
   138   71  136 1    
   139   71  137 1    
@<TRIPOS>SUBSTRUCTURE
     1 UNK         1 GROUP             0       ****    0 ROOT    
