@<TRIPOS>MOLECULE
3R136
137   139    1
SMALL
USER_CHARGES


@<TRIPOS>ATOM
      1 CA         29.7475   22.5014    4.6263 C.3       0 UNK        -0.1979 
      2 C          29.1399   21.5711    3.5893 C.2       0 UNK         0.4864 
      3 O          28.1554   20.8891    3.8770 O.2       0 UNK        -0.5359 
      4 N          29.7120   21.5494    2.3776 N.am      1 UNK        -0.4318 
      5 CA         29.2257   20.7547    1.2379 C.3       1 UNK         0.0824 
      6 C6         30.3242   20.5304    0.1679 C.3       12 UNK        -0.0944 
      7 S7         31.8422   19.7998    0.8769 S.3       12 UNK        -0.2672 
      8 C8         33.1240   21.0135    0.4202 C.3       12 UNK         0.0333 
      9 C9         32.8527   22.4047    0.9793 C.ar      12 UNK        -0.0807 
     10 C10        32.9881   22.6599    2.3484 C.ar      12 UNK        -0.0894 
     11 C11        32.7586   23.9436    2.8541 C.ar      12 UNK        -0.0804 
     12 C12        32.3811   24.9688    1.9836 C.ar      12 UNK        -0.0824 
     13 C13        32.2556   24.7320    0.6126 C.ar      12 UNK        -0.0762 
     14 C14        32.4976   23.4473    0.1166 C.ar      12 UNK        -0.0782 
     15 C15        31.9095   25.8812   -0.3257 C.3       12 UNK         0.0230 
     16 S16        30.4798   25.5133   -1.3916 S.3       12 UNK        -0.2608 
     17 C17        30.0360   27.1964   -1.9483 C.3       12 UNK        -0.0989 
     18 CA         28.6552   27.6423   -1.3975 C.3       5 UNK         0.0716 
     19 N          28.5400   27.5155    0.0611 N.am      5 UNK        -0.4135 
     20 C          29.1318   28.2819    0.9883 C.2       4 UNK         0.5031 
     21 O          29.9739   29.1367    0.7203 O.2       4 UNK        -0.5229 
     22 CA         28.6681   28.1017    2.4497 C.3       4 UNK         0.0329 
     23 CB         28.5877   29.4505    3.1923 C.3       4 UNK        -0.2001 
     24 N          27.4060   27.3595    2.5957 N.am      4 UNK        -0.4303 
     25 C          26.2044   27.6454    2.0707 C.2       3 UNK         0.5044 
     26 O          25.9784   28.6329    1.3673 O.2       3 UNK        -0.5152 
     27 CA         25.1145   26.5735    2.2750 C.3       3 UNK         0.0319 
     28 CB         23.7030   27.1146    1.9823 C.3       3 UNK        -0.2001 
     29 N          25.3590   25.3970    1.4296 N.am      3 UNK        -0.4354 
     30 C          26.3458   24.5076    1.6079 C.2       2 UNK         0.4964 
     31 O          27.1337   24.5520    2.5592 O.2       2 UNK        -0.5047 
     32 CA         26.5098   23.4158    0.5383 C.3       2 UNK         0.0288 
     33 CB         26.6979   24.0032   -0.8745 C.3       2 UNK        -0.2113 
     34 N          27.6840   22.6351    0.9033 N.am      2 UNK        -0.4145 
     35 C          27.9547   21.3621    0.5992 C.2       1 UNK         0.5006 
     36 O          27.2510   20.6704   -0.1391 O.2       1 UNK        -0.5103 
     37 C          28.2240   29.0471   -1.8892 C.2       5 UNK         0.5055 
     38 O          28.7831   29.5555   -2.8623 O.2       5 UNK        -0.5220 
     39 N          27.2486   29.6501   -1.1860 N.am      6 UNK        -0.4450 
     40 CA         26.7131   31.0055   -1.3595 C.3       6 UNK         0.0367 
     41 CB         26.0752   31.1846   -2.7542 C.3       6 UNK        -0.1929 
     42 C          27.7009   32.1405   -1.0105 C.2       6 UNK         0.5070 
     43 O          27.4175   33.2955   -1.3347 O.2       6 UNK        -0.5237 
     44 N          28.8193   31.8278   -0.3396 N.am      7 UNK        -0.4739 
     45 CA         29.7564   32.8167    0.1997 C.3       7 UNK         0.0276 
     46 CB         31.1357   32.1586    0.3760 C.3       7 UNK        -0.1927 
     47 C          29.2568   33.3735    1.5437 C.2       7 UNK         0.5013 
     48 O          28.3872   32.7743    2.1837 O.2       7 UNK        -0.5193 
     49 N          29.8534   34.4890    1.9834 N.am      8 UNK        -0.4253 
     50 CA         29.6278   35.1018    3.2970 C.3       8 UNK         0.0242 
     51 CB         30.0650   36.5780    3.2412 C.3       8 UNK        -0.2000 
     52 C          30.3471   34.3079    4.4079 C.2       8 UNK         0.4948 
     53 O          31.3102   34.8073    4.9935 O.2       8 UNK        -0.5275 
     54 N          29.8651   33.0773    4.6370 N.am      9 UNK        -0.4246 
     55 CA         30.4247   31.9939    5.4567 C.3       9 UNK         0.0261 
     56 CB         30.7240   32.4470    6.9010 C.3       9 UNK        -0.1959 
     57 C          31.6511   31.3332    4.7979 C.2       9 UNK         0.5033 
     58 O          32.3146   31.9326    3.9485 O.2       9 UNK        -0.5390 
     59 N          31.9237   30.0877    5.1986 N.am      10 UNK        -0.4215 
     60 CA         33.0272   29.2658    4.7107 C.3       10 UNK         0.0240 
     61 CB         32.6526   28.6272    3.3601 C.3       10 UNK        -0.1982 
     62 C          33.3375   28.1923    5.7592 C.2       10 UNK         0.4970 
     63 O          32.4448   27.8188    6.5245 O.2       10 UNK        -0.4916 
     64 N          34.5896   27.7186    5.7609 N.am      11 UNK        -0.4279 
     65 CA         35.1311   26.6800    6.6598 C.3       11 UNK         0.1003 
     66 C          35.1867   27.0784    8.1680 C.2       11 UNK         0.5709 
     67 N          35.1197   28.3585    8.5152 N.am      11 UNK        -0.7358 
     68 O          35.3277   26.2227    9.0390 O.2       11 UNK        -0.4999 
     69 C69        34.4990   25.2751    6.4299 C.3       12 UNK        -0.0954 
     70 S70        34.6510   24.7122    4.7005 S.3       12 UNK        -0.2268 
     71 C71        32.9355   24.2396    4.3349 C.3       12 UNK         0.0203 
     72 H72        28.9938   22.8074    5.3516 H         1 UNK         0.0888 
     73 H73        30.5528   21.9981    5.1605 H         1 UNK         0.0888 
     74 H74        30.1421   23.4032    4.1598 H         1 UNK         0.0888 
     75 H75        30.5451   22.0958    2.2025 H         1 UNK         0.3017 
     76 H76        28.9377   19.7727    1.6200 H         1 UNK         0.0873 
     77 H77        30.5598   21.4638   -0.3449 H         1 UNK         0.0745 
     78 H78        29.9625   19.8499   -0.6054 H         1 UNK         0.0745 
     79 H79        33.2104   21.0422   -0.6673 H         1 UNK         0.0705 
     80 H80        34.0878   20.6616    0.7909 H         1 UNK         0.0705 
     81 H81        33.2839   21.8621    3.0165 H         1 UNK         0.1334 
     82 H82        32.2100   25.9606    2.3744 H         1 UNK         0.1417 
     83 H83        32.4112   23.2635   -0.9460 H         1 UNK         0.1562 
     84 H84        32.7739   26.1060   -0.9518 H         1 UNK         0.0748 
     85 H85        31.7011   26.7849    0.2492 H         1 UNK         0.0748 
     86 H86        30.0247   27.1912   -3.0398 H         1 UNK         0.0940 
     87 H87        30.8119   27.9083   -1.6605 H         1 UNK         0.0940 
     88 H88        27.9103   26.9609   -1.8110 H         1 UNK         0.0703 
     89 H89        27.8703   26.8362    0.3870 H         1 UNK         0.3081 
     90 H90        29.4347   27.4962    2.9344 H         1 UNK         0.0719 
     91 H91        28.3308   29.3112    4.2420 H         1 UNK         0.0809 
     92 H92        27.8427   30.1116    2.7481 H         1 UNK         0.0809 
     93 H93        29.5425   29.9753    3.1574 H         1 UNK         0.0809 
     94 H94        27.4866   26.4539    3.0500 H         1 UNK         0.2990 
     95 H95        25.1432   26.2653    3.3225 H         1 UNK         0.0690 
     96 H96        22.9386   26.3704    2.2066 H         1 UNK         0.0788 
     97 H97        23.5885   27.4091    0.9382 H         1 UNK         0.0788 
     98 H98        23.4880   27.9925    2.5933 H         1 UNK         0.0788 
     99 H99        24.7611   25.2995    0.6212 H         1 UNK         0.2993 
    100 H100       25.6251   22.7760    0.5651 H         1 UNK         0.0949 
    101 H101       27.5686   24.6568   -0.9230 H         1 UNK         0.0767 
    102 H102       26.8392   23.2137   -1.6129 H         1 UNK         0.0767 
    103 H103       25.8296   24.5816   -1.1912 H         1 UNK         0.0767 
    104 H104       28.2720   23.0984    1.5855 H         1 UNK         0.3013 
    105 H105       26.8701   29.1577   -0.3808 H         1 UNK         0.3121 
    106 H106       25.9101   31.0897   -0.6255 H         1 UNK         0.0774 
    107 H107       25.5232   32.1233   -2.8139 H         1 UNK         0.0815 
    108 H108       26.8251   31.2022   -3.5452 H         1 UNK         0.0815 
    109 H109       25.3704   30.3832   -2.9752 H         1 UNK         0.0815 
    110 H110       28.9881   30.8641   -0.0744 H         1 UNK         0.2987 
    111 H111       29.8507   33.6425   -0.5092 H         1 UNK         0.0949 
    112 H112       31.1325   31.4228    1.1814 H         1 UNK         0.0806 
    113 H113       31.4598   31.6562   -0.5356 H         1 UNK         0.0806 
    114 H114       31.8960   32.8993    0.6260 H         1 UNK         0.0806 
    115 H115       30.5856   34.8991    1.4214 H         1 UNK         0.3010 
    116 H116       28.5581   35.0820    3.5181 H         1 UNK         0.0829 
    117 H117       29.4993   37.1314    2.4914 H         1 UNK         0.0813 
    118 H118       29.8968   37.0703    4.2000 H         1 UNK         0.0813 
    119 H119       31.1250   36.6790    3.0044 H         1 UNK         0.0813 
    120 H120       29.1165   32.7891    4.0120 H         1 UNK         0.3038 
    121 H121       29.6393   31.2381    5.5042 H         1 UNK         0.0769 
    122 H122       31.5801   33.1205    6.9495 H         1 UNK         0.0811 
    123 H123       29.8687   32.9578    7.3431 H         1 UNK         0.0811 
    124 H124       30.9548   31.5929    7.5384 H         1 UNK         0.0811 
    125 H125       31.3794   29.6513    5.9336 H         1 UNK         0.3204 
    126 H126       33.9118   29.8942    4.5859 H         1 UNK         0.0748 
    127 H127       33.4608   27.9983    2.9846 H         1 UNK         0.0771 
    128 H128       31.7622   28.0056    3.4505 H         1 UNK         0.0771 
    129 H129       32.4523   29.3835    2.6004 H         1 UNK         0.0771 
    130 H130       35.2493   28.0926    5.0943 H         1 UNK         0.2980 
    131 H131       36.1815   26.5941    6.3799 H         1 UNK         0.0545 
    132 H132       35.0220   29.0756    7.8152 H         1 UNK         0.3459 
    133 H133       35.1682   28.6070    9.4906 H         1 UNK         0.3459 
    134 H134       34.9932   24.5260    7.0507 H         1 UNK         0.0616 
    135 H135       33.4515   25.2749    6.7350 H         1 UNK         0.0616 
    136 H136       32.2630   25.0441    4.6381 H         1 UNK         0.0634 
    137 H137       32.6710   23.3664    4.9326 H         1 UNK         0.0634 
@<TRIPOS>BOND
     1    1    2 1    
     2    1   72 1    
     3    1   73 1    
     4    1   74 1    
     5    2    3 2    
     6    2    4 am   BACKBONE|DICT|INTERRES
     7    4    5 1    
     8    4   75 1    
     9    5    6 1    
    10    5   35 1    
    11    5   76 1    
    12    6    7 1    
    13    6   77 1    
    14    6   78 1    
    15    7    8 1    
    16    8    9 1    
    17    8   79 1    
    18    8   80 1    
    19    9   10 ar   
    20    9   14 ar   
    21   10   11 ar   
    22   10   81 1    
    23   11   12 ar   
    24   11   71 1    
    25   12   13 ar   
    26   12   82 1    
    27   13   14 ar   
    28   13   15 1    
    29   14   83 1    
    30   15   16 1    
    31   15   84 1    
    32   15   85 1    
    33   16   17 1    
    34   17   18 1    
    35   17   86 1    
    36   17   87 1    
    37   18   19 1    
    38   18   37 1    
    39   18   88 1    
    40   19   20 am   BACKBONE|DICT|INTERRES
    41   19   89 1    
    42   20   21 2    
    43   20   22 1    
    44   22   23 1    
    45   22   24 1    
    46   22   90 1    
    47   23   91 1    
    48   23   92 1    
    49   23   93 1    
    50   24   25 am   BACKBONE|DICT|INTERRES
    51   24   94 1    
    52   25   26 2    
    53   25   27 1    
    54   27   28 1    
    55   27   29 1    
    56   27   95 1    
    57   28   96 1    
    58   28   97 1    
    59   28   98 1    
    60   29   30 am   BACKBONE|DICT|INTERRES
    61   29   99 1    
    62   30   31 2    
    63   30   32 1    
    64   32   33 1    
    65   32   34 1    
    66   32  100 1    
    67   33  101 1    
    68   33  102 1    
    69   33  103 1    
    70   34   35 am   BACKBONE|DICT|INTERRES
    71   34  104 1    
    72   35   36 2    
    73   37   38 2    
    74   37   39 am   BACKBONE|DICT|INTERRES
    75   39   40 1    
    76   39  105 1    
    77   40   41 1    
    78   40   42 1    
    79   40  106 1    
    80   41  107 1    
    81   41  108 1    
    82   41  109 1    
    83   42   43 2    
    84   42   44 am   BACKBONE|DICT|INTERRES
    85   44   45 1    
    86   44  110 1    
    87   45   46 1    
    88   45   47 1    
    89   45  111 1    
    90   46  112 1    
    91   46  113 1    
    92   46  114 1    
    93   47   48 2    
    94   47   49 am   BACKBONE|DICT|INTERRES
    95   49   50 1    
    96   49  115 1    
    97   50   51 1    
    98   50   52 1    
    99   50  116 1    
   100   51  117 1    
   101   51  118 1    
   102   51  119 1    
   103   52   53 2    
   104   52   54 am   BACKBONE|DICT|INTERRES
   105   54   55 1    
   106   54  120 1    
   107   55   56 1    
   108   55   57 1    
   109   55  121 1    
   110   56  122 1    
   111   56  123 1    
   112   56  124 1    
   113   57   58 2    
   114   57   59 am   BACKBONE|DICT|INTERRES
   115   59   60 1    
   116   59  125 1    
   117   60   61 1    
   118   60   62 1    
   119   60  126 1    
   120   61  127 1    
   121   61  128 1    
   122   61  129 1    
   123   62   63 2    
   124   62   64 am   BACKBONE|DICT|INTERRES
   125   64   65 1    
   126   64  130 1    
   127   65   66 1    
   128   65   69 1    
   129   65  131 1    
   130   66   67 am   BACKBONE|DICT|INTERRES
   131   66   68 2    
   132   67  132 1    
   133   67  133 1    
   134   69   70 1    
   135   69  134 1    
   136   69  135 1    
   137   70   71 1    
   138   71  136 1    
   139   71  137 1    
@<TRIPOS>SUBSTRUCTURE
     1 UNK         1 GROUP             0       ****    0 ROOT    
