@<TRIPOS>MOLECULE
3R136
137   139    1
SMALL
USER_CHARGES


@<TRIPOS>ATOM
      1 CA         27.7556   24.3720   -3.5794 C.3       0 UNK        -0.1979 
      2 C          28.1210   23.5018   -2.3868 C.2       0 UNK         0.4864 
      3 O          28.4041   22.3151   -2.5589 O.2       0 UNK        -0.5359 
      4 N          28.0796   24.0774   -1.1780 N.am      1 UNK        -0.4318 
      5 CA         28.3576   23.4788    0.1357 C.3       1 UNK         0.0824 
      6 C6         29.7653   22.8462    0.2823 C.3       12 UNK        -0.0944 
      7 S7         31.1058   24.0364   -0.0636 S.3       12 UNK        -0.2672 
      8 C8         31.9725   24.1162    1.5338 C.3       12 UNK         0.0333 
      9 C9         31.4190   25.2093    2.4366 C.ar      12 UNK        -0.0807 
     10 C10        32.0127   26.4758    2.4322 C.ar      12 UNK        -0.0894 
     11 C11        31.5795   27.4665    3.3168 C.ar      12 UNK        -0.0804 
     12 C12        30.5248   27.1927    4.1901 C.ar      12 UNK        -0.0824 
     13 C13        29.9078   25.9378    4.1924 C.ar      12 UNK        -0.0762 
     14 C14        30.3600   24.9471    3.3137 C.ar      12 UNK        -0.0782 
     15 C15        28.7855   25.6478    5.1821 C.3       12 UNK         0.0230 
     16 S16        27.1337   25.6442    4.4111 S.3       12 UNK        -0.2608 
     17 C17        27.0556   27.2910    3.6280 C.3       12 UNK        -0.0989 
     18 CA         27.0245   27.1462    2.0889 C.3       5 UNK         0.0716 
     19 N          25.7229   26.6550    1.6283 N.am      5 UNK        -0.4135 
     20 C          25.4668   26.2116    0.3943 C.2       4 UNK         0.5031 
     21 O          26.3130   26.1262   -0.5003 O.2       4 UNK        -0.5229 
     22 CA         24.0224   25.8001    0.0983 C.3       4 UNK         0.0329 
     23 CB         23.2497   26.9692   -0.5423 C.3       4 UNK        -0.2001 
     24 N          24.0646   24.6507   -0.7990 N.am      4 UNK        -0.4303 
     25 C          23.0474   23.8332   -1.0922 C.2       3 UNK         0.5044 
     26 O          21.9019   23.9700   -0.6613 O.2       3 UNK        -0.5152 
     27 CA         23.3791   22.6444   -2.0091 C.3       3 UNK         0.0319 
     28 CB         23.6049   23.1103   -3.4576 C.3       3 UNK        -0.2001 
     29 N          24.5543   21.9075   -1.5386 N.am      3 UNK        -0.4354 
     30 C          24.5670   21.1050   -0.4630 C.2       2 UNK         0.4964 
     31 O          23.5722   20.8436    0.2136 O.2       2 UNK        -0.5047 
     32 CA         25.9248   20.4991   -0.0713 C.3       2 UNK         0.0288 
     33 CB         26.2181   19.2353   -0.8960 C.3       2 UNK        -0.2113 
     34 N          27.0194   21.4563   -0.2373 N.am      2 UNK        -0.4145 
     35 C          27.2430   22.5066    0.5632 C.2       1 UNK         0.5006 
     36 O          26.5931   22.7403    1.5824 O.2       1 UNK        -0.5103 
     37 C          27.3901   28.4675    1.3876 C.2       5 UNK         0.5055 
     38 O          26.5324   29.3431    1.2437 O.2       5 UNK        -0.5220 
     39 N          28.6546   28.5766    0.9628 N.am      6 UNK        -0.4450 
     40 CA         29.1982   29.7445    0.2723 C.3       6 UNK         0.0367 
     41 CB         30.5095   29.3468   -0.4254 C.3       6 UNK        -0.1929 
     42 C          29.4316   30.9183    1.2356 C.2       6 UNK         0.5070 
     43 O          29.7439   30.7052    2.4089 O.2       6 UNK        -0.5237 
     44 N          29.3208   32.1424    0.7090 N.am      7 UNK        -0.4739 
     45 CA         29.5950   33.3868    1.4281 C.3       7 UNK         0.0276 
     46 CB         28.7393   34.5136    0.8184 C.3       7 UNK        -0.1927 
     47 C          31.1014   33.7009    1.3923 C.2       7 UNK         0.5013 
     48 O          31.5216   34.6235    0.6906 O.2       7 UNK        -0.5193 
     49 N          31.8878   32.9054    2.1242 N.am      8 UNK        -0.4253 
     50 CA         33.3339   33.0518    2.2733 C.3       8 UNK         0.0242 
     51 CB         34.0463   31.9633    1.4525 C.3       8 UNK        -0.2000 
     52 C          33.7039   32.9532    3.7577 C.2       8 UNK         0.4948 
     53 O          32.9669   32.3457    4.5392 O.2       8 UNK        -0.5275 
     54 N          34.8406   33.5598    4.1147 N.am      9 UNK        -0.4246 
     55 CA         35.3992   33.5522    5.4661 C.3       9 UNK         0.0261 
     56 CB         36.2724   34.8065    5.6446 C.3       9 UNK        -0.1959 
     57 C          36.2281   32.2836    5.7247 C.2       9 UNK         0.5033 
     58 O          36.7149   31.6600    4.7784 O.2       9 UNK        -0.5390 
     59 N          36.4076   31.9665    7.0151 N.am      10 UNK        -0.4215 
     60 CA         37.2372   30.8829    7.5638 C.3       10 UNK         0.0240 
     61 CB         38.7272   31.0946    7.2146 C.3       10 UNK        -0.1982 
     62 C          36.7489   29.4563    7.2341 C.2       10 UNK         0.4970 
     63 O          37.5334   28.5119    7.3430 O.2       10 UNK        -0.4916 
     64 N          35.4651   29.3085    6.8813 N.am      11 UNK        -0.4279 
     65 CA         34.8084   28.0088    6.6587 C.3       11 UNK         0.1003 
     66 C          34.4846   27.2226    7.9640 C.2       11 UNK         0.5709 
     67 N          34.5598   27.8254    9.1454 N.am      11 UNK        -0.7358 
     68 O          34.1695   26.0365    7.9037 O.2       11 UNK        -0.4999 
     69 C69        33.5463   28.1471    5.7702 C.3       12 UNK        -0.0954 
     70 S70        33.9358   28.7273    4.0863 S.3       12 UNK        -0.2268 
     71 C71        32.2706   28.8227    3.3551 C.3       12 UNK         0.0203 
     72 H72        26.9845   23.8884   -4.1783 H         1 UNK         0.0888 
     73 H73        27.3827   25.3489   -3.2706 H         1 UNK         0.0888 
     74 H74        28.6305   24.5255   -4.2104 H         1 UNK         0.0888 
     75 H75        27.7244   25.0290   -1.1135 H         1 UNK         0.3017 
     76 H76        28.3126   24.3099    0.8406 H         1 UNK         0.0873 
     77 H77        29.8891   22.4405    1.2875 H         1 UNK         0.0745 
     78 H78        29.8873   21.9987   -0.3938 H         1 UNK         0.0745 
     79 H79        31.9398   23.1494    2.0380 H         1 UNK         0.0705 
     80 H80        33.0288   24.3063    1.3372 H         1 UNK         0.0705 
     81 H81        32.8388   26.6820    1.7651 H         1 UNK         0.1334 
     82 H82        30.1954   27.9562    4.8817 H         1 UNK         0.1417 
     83 H83        29.8993   23.9688    3.3282 H         1 UNK         0.1562 
     84 H84        28.7931   26.3754    5.9952 H         1 UNK         0.0748 
     85 H85        28.9569   24.6761    5.6475 H         1 UNK         0.0748 
     86 H86        27.9016   27.8954    3.9562 H         1 UNK         0.0940 
     87 H87        26.1691   27.8163    3.9882 H         1 UNK         0.0940 
     88 H88        27.7753   26.4079    1.7993 H         1 UNK         0.0703 
     89 H89        24.9683   26.7104    2.2958 H         1 UNK         0.3081 
     90 H90        23.5358   25.5008    1.0291 H         1 UNK         0.0719 
     91 H91        23.6892   27.2649   -1.4958 H         1 UNK         0.0809 
     92 H92        22.2056   26.7123   -0.7206 H         1 UNK         0.0809 
     93 H93        23.2584   27.8459    0.1067 H         1 UNK         0.0809 
     94 H94        24.9793   24.4698   -1.1895 H         1 UNK         0.2990 
     95 H95        22.5225   21.9666   -2.0031 H         1 UNK         0.0690 
     96 H96        23.7718   22.2637   -4.1240 H         1 UNK         0.0788 
     97 H97        24.4614   23.7796   -3.5452 H         1 UNK         0.0788 
     98 H98        22.7328   23.6480   -3.8324 H         1 UNK         0.0788 
     99 H99        25.4149   22.0387   -2.0485 H         1 UNK         0.2993 
    100 H100       25.8710   20.2160    0.9825 H         1 UNK         0.0949 
    101 H101       26.3085   19.4567   -1.9604 H         1 UNK         0.0767 
    102 H102       27.1444   18.7593   -0.5734 H         1 UNK         0.0767 
    103 H103       25.4199   18.5006   -0.7810 H         1 UNK         0.0767 
    104 H104       27.5817   21.3908   -1.0826 H         1 UNK         0.3013 
    105 H105       29.3086   27.8368    1.1745 H         1 UNK         0.3121 
    106 H106       28.4809   30.0564   -0.4903 H         1 UNK         0.0774 
    107 H107       30.9498   30.1962   -0.9494 H         1 UNK         0.0815 
    108 H108       30.3422   28.5634   -1.1649 H         1 UNK         0.0815 
    109 H109       31.2523   28.9818    0.2836 H         1 UNK         0.0815 
    110 H110       29.1022   32.2328   -0.2733 H         1 UNK         0.2987 
    111 H111       29.3029   33.2785    2.4755 H         1 UNK         0.0949 
    112 H112       27.6751   34.2941    0.9065 H         1 UNK         0.0806 
    113 H113       28.9172   35.4592    1.3323 H         1 UNK         0.0806 
    114 H114       28.9628   34.6694   -0.2379 H         1 UNK         0.0806 
    115 H115       31.4598   32.1830    2.6936 H         1 UNK         0.3010 
    116 H116       33.6508   34.0330    1.9123 H         1 UNK         0.0829 
    117 H117       35.1299   32.0695    1.5175 H         1 UNK         0.0813 
    118 H118       33.7987   30.9637    1.8073 H         1 UNK         0.0813 
    119 H119       33.7766   32.0214    0.3978 H         1 UNK         0.0813 
    120 H120       35.4128   33.9828    3.3982 H         1 UNK         0.3038 
    121 H121       34.5813   33.5909    6.1894 H         1 UNK         0.0769 
    122 H122       37.1168   34.8129    4.9539 H         1 UNK         0.0811 
    123 H123       36.6797   34.8639    6.6549 H         1 UNK         0.0811 
    124 H124       35.6968   35.7176    5.4790 H         1 UNK         0.0811 
    125 H125       35.9563   32.5497    7.7075 H         1 UNK         0.3204 
    126 H126       37.1497   30.9702    8.6478 H         1 UNK         0.0748 
    127 H127       39.3626   30.3953    7.7596 H         1 UNK         0.0771 
    128 H128       38.9197   30.9453    6.1518 H         1 UNK         0.0771 
    129 H129       39.0579   32.0995    7.4776 H         1 UNK         0.0771 
    130 H130       34.8816   30.1265    6.7946 H         1 UNK         0.2980 
    131 H131       35.5134   27.3781    6.1133 H         1 UNK         0.0545 
    132 H132       34.8143   28.7972    9.2115 H         1 UNK         0.3459 
    133 H133       34.3526   27.2997    9.9800 H         1 UNK         0.3459 
    134 H134       32.8257   28.8294    6.2245 H         1 UNK         0.0616 
    135 H135       33.0445   27.1824    5.6755 H         1 UNK         0.0616 
    136 H136       31.6806   29.5471    3.9186 H         1 UNK         0.0634 
    137 H137       32.3493   29.2147    2.3421 H         1 UNK         0.0634 
@<TRIPOS>BOND
     1    1    2 1    
     2    1   72 1    
     3    1   73 1    
     4    1   74 1    
     5    2    3 2    
     6    2    4 am   BACKBONE|DICT|INTERRES
     7    4    5 1    
     8    4   75 1    
     9    5    6 1    
    10    5   35 1    
    11    5   76 1    
    12    6    7 1    
    13    6   77 1    
    14    6   78 1    
    15    7    8 1    
    16    8    9 1    
    17    8   79 1    
    18    8   80 1    
    19    9   10 ar   
    20    9   14 ar   
    21   10   11 ar   
    22   10   81 1    
    23   11   12 ar   
    24   11   71 1    
    25   12   13 ar   
    26   12   82 1    
    27   13   14 ar   
    28   13   15 1    
    29   14   83 1    
    30   15   16 1    
    31   15   84 1    
    32   15   85 1    
    33   16   17 1    
    34   17   18 1    
    35   17   86 1    
    36   17   87 1    
    37   18   19 1    
    38   18   37 1    
    39   18   88 1    
    40   19   20 am   BACKBONE|DICT|INTERRES
    41   19   89 1    
    42   20   21 2    
    43   20   22 1    
    44   22   23 1    
    45   22   24 1    
    46   22   90 1    
    47   23   91 1    
    48   23   92 1    
    49   23   93 1    
    50   24   25 am   BACKBONE|DICT|INTERRES
    51   24   94 1    
    52   25   26 2    
    53   25   27 1    
    54   27   28 1    
    55   27   29 1    
    56   27   95 1    
    57   28   96 1    
    58   28   97 1    
    59   28   98 1    
    60   29   30 am   BACKBONE|DICT|INTERRES
    61   29   99 1    
    62   30   31 2    
    63   30   32 1    
    64   32   33 1    
    65   32   34 1    
    66   32  100 1    
    67   33  101 1    
    68   33  102 1    
    69   33  103 1    
    70   34   35 am   BACKBONE|DICT|INTERRES
    71   34  104 1    
    72   35   36 2    
    73   37   38 2    
    74   37   39 am   BACKBONE|DICT|INTERRES
    75   39   40 1    
    76   39  105 1    
    77   40   41 1    
    78   40   42 1    
    79   40  106 1    
    80   41  107 1    
    81   41  108 1    
    82   41  109 1    
    83   42   43 2    
    84   42   44 am   BACKBONE|DICT|INTERRES
    85   44   45 1    
    86   44  110 1    
    87   45   46 1    
    88   45   47 1    
    89   45  111 1    
    90   46  112 1    
    91   46  113 1    
    92   46  114 1    
    93   47   48 2    
    94   47   49 am   BACKBONE|DICT|INTERRES
    95   49   50 1    
    96   49  115 1    
    97   50   51 1    
    98   50   52 1    
    99   50  116 1    
   100   51  117 1    
   101   51  118 1    
   102   51  119 1    
   103   52   53 2    
   104   52   54 am   BACKBONE|DICT|INTERRES
   105   54   55 1    
   106   54  120 1    
   107   55   56 1    
   108   55   57 1    
   109   55  121 1    
   110   56  122 1    
   111   56  123 1    
   112   56  124 1    
   113   57   58 2    
   114   57   59 am   BACKBONE|DICT|INTERRES
   115   59   60 1    
   116   59  125 1    
   117   60   61 1    
   118   60   62 1    
   119   60  126 1    
   120   61  127 1    
   121   61  128 1    
   122   61  129 1    
   123   62   63 2    
   124   62   64 am   BACKBONE|DICT|INTERRES
   125   64   65 1    
   126   64  130 1    
   127   65   66 1    
   128   65   69 1    
   129   65  131 1    
   130   66   67 am   BACKBONE|DICT|INTERRES
   131   66   68 2    
   132   67  132 1    
   133   67  133 1    
   134   69   70 1    
   135   69  134 1    
   136   69  135 1    
   137   70   71 1    
   138   71  136 1    
   139   71  137 1    
@<TRIPOS>SUBSTRUCTURE
     1 UNK         1 GROUP             0       ****    0 ROOT    
