@<TRIPOS>MOLECULE
3R136
137   139    1
SMALL
USER_CHARGES


@<TRIPOS>ATOM
      1 CA         26.9237   22.3385    6.4029 C.3       0 UNK        -0.1979 
      2 C          26.9624   22.6313    4.9106 C.2       0 UNK         0.4864 
      3 O          26.5281   23.7040    4.4874 O.2       0 UNK        -0.5359 
      4 N          27.4655   21.6815    4.1083 N.am      1 UNK        -0.4318 
      5 CA         27.6286   21.7280    2.6467 C.3       1 UNK         0.0824 
      6 C6         28.5003   22.9223    2.1660 C.3       12 UNK        -0.0944 
      7 S7         29.2671   22.6234    0.5368 S.3       12 UNK        -0.2672 
      8 C8         31.0423   22.6422    0.9348 C.3       12 UNK         0.0333 
      9 C9         31.6331   24.0448    0.8647 C.ar      12 UNK        -0.0807 
     10 C10        31.5811   24.8958    1.9729 C.ar      12 UNK        -0.0894 
     11 C11        32.1861   26.1560    1.9310 C.ar      12 UNK        -0.0804 
     12 C12        32.8395   26.5683    0.7653 C.ar      12 UNK        -0.0824 
     13 C13        32.8970   25.7278   -0.3507 C.ar      12 UNK        -0.0762 
     14 C14        32.2823   24.4728   -0.2981 C.ar      12 UNK        -0.0782 
     15 C15        33.6778   26.1419   -1.5911 C.3       12 UNK         0.0230 
     16 S16        32.6105   26.8463   -2.8863 S.3       12 UNK        -0.2608 
     17 C17        32.2779   28.5205   -2.2379 C.3       12 UNK        -0.0989 
     18 CA         30.7712   28.7710   -1.9847 C.3       5 UNK         0.0716 
     19 N          30.1935   27.7696   -1.0798 N.am      5 UNK        -0.4135 
     20 C          28.8851   27.5387   -0.9229 C.2       4 UNK         0.5031 
     21 O          27.9962   28.1929   -1.4742 O.2       4 UNK        -0.5229 
     22 CA         28.5190   26.4068    0.0503 C.3       4 UNK         0.0329 
     23 CB         28.4292   26.9486    1.4866 C.3       4 UNK        -0.2001 
     24 N          27.2554   25.7526   -0.2960 N.am      4 UNK        -0.4303 
     25 C          27.0344   25.0406   -1.4113 C.2       3 UNK         0.5044 
     26 O          27.8851   24.8379   -2.2796 O.2       3 UNK        -0.5152 
     27 CA         25.6379   24.4106   -1.5364 C.3       3 UNK         0.0319 
     28 CB         25.5035   23.4504   -2.7357 C.3       3 UNK        -0.2001 
     29 N          25.3333   23.7081   -0.2929 N.am      3 UNK        -0.4354 
     30 C          24.1179   23.4781    0.2164 C.2       2 UNK         0.4964 
     31 O          23.0746   23.8187   -0.3429 O.2       2 UNK        -0.5047 
     32 CA         24.0379   22.7924    1.5979 C.3       2 UNK         0.0288 
     33 CB         23.1609   21.5231    1.5602 C.3       2 UNK        -0.2113 
     34 N          25.3428   22.5324    2.2281 N.am      2 UNK        -0.4145 
     35 C          26.2921   21.6527    1.8749 C.2       1 UNK         0.5006 
     36 O          26.1663   20.8324    0.9653 O.2       1 UNK        -0.5103 
     37 C          30.5391   30.2288   -1.5262 C.2       5 UNK         0.5055 
     38 O          30.6970   31.1423   -2.3380 O.2       5 UNK        -0.5220 
     39 N          30.1802   30.4304   -0.2536 N.am      6 UNK        -0.4450 
     40 CA         29.8370   31.7138    0.3465 C.3       6 UNK         0.0367 
     41 CB         31.0860   32.3219    1.0096 C.3       6 UNK        -0.1929 
     42 C          28.7265   31.4746    1.3750 C.2       6 UNK         0.5070 
     43 O          28.5806   30.3513    1.8635 O.2       6 UNK        -0.5237 
     44 N          27.9714   32.5340    1.6934 N.am      7 UNK        -0.4739 
     45 CA         26.9194   32.5121    2.7169 C.3       7 UNK         0.0276 
     46 CB         25.9948   33.7255    2.5259 C.3       7 UNK        -0.1927 
     47 C          27.4842   32.4824    4.1487 C.2       7 UNK         0.5013 
     48 O          26.8511   31.9131    5.0389 O.2       7 UNK        -0.5193 
     49 N          28.6624   33.0895    4.3377 N.am      8 UNK        -0.4253 
     50 CA         29.4530   33.0203    5.5646 C.3       8 UNK         0.0242 
     51 CB         30.2906   34.3042    5.6882 C.3       8 UNK        -0.2000 
     52 C          30.3713   31.7916    5.5196 C.2       8 UNK         0.4948 
     53 O          30.7499   31.3474    4.4322 O.2       8 UNK        -0.5275 
     54 N          30.7749   31.2976    6.6966 N.am      9 UNK        -0.4246 
     55 CA         31.6751   30.1511    6.8745 C.3       9 UNK         0.0261 
     56 CB         31.5127   29.6054    8.3057 C.3       9 UNK        -0.1959 
     57 C          33.1458   30.4722    6.5274 C.2       9 UNK         0.5033 
     58 O          34.0442   30.2125    7.3304 O.2       9 UNK        -0.5390 
     59 N          33.3724   31.0142    5.3235 N.am      10 UNK        -0.4215 
     60 CA         34.6799   31.3839    4.7679 C.3       10 UNK         0.0240 
     61 CB         34.4661   32.1045    3.4266 C.3       10 UNK        -0.1982 
     62 C          35.6374   30.1906    4.5932 C.2       10 UNK         0.4970 
     63 O          36.8540   30.3796    4.6107 O.2       10 UNK        -0.4916 
     64 N          35.0658   28.9903    4.4502 N.am      11 UNK        -0.4279 
     65 CA         35.7591   27.6984    4.4672 C.3       11 UNK         0.1003 
     66 C          36.2823   27.2525    5.8665 C.2       11 UNK         0.5709 
     67 N          35.9368   27.9191    6.9632 N.am      11 UNK        -0.7358 
     68 O          37.0357   26.2858    5.9556 O.2       11 UNK        -0.4999 
     69 C69        34.8996   26.6029    3.7821 C.3       12 UNK        -0.0954 
     70 S70        33.2223   26.4238    4.4947 S.3       12 UNK        -0.2268 
     71 C71        32.1575   27.0581    3.1576 C.3       12 UNK         0.0203 
     72 H72        25.8962   22.3695    6.7643 H         1 UNK         0.0888 
     73 H73        27.3369   21.3577    6.6378 H         1 UNK         0.0888 
     74 H74        27.4990   23.0877    6.9460 H         1 UNK         0.0888 
     75 H75        27.7693   20.8148    4.5312 H         1 UNK         0.3017 
     76 H76        28.1699   20.8103    2.4090 H         1 UNK         0.0873 
     77 H77        27.9195   23.8437    2.1160 H         1 UNK         0.0745 
     78 H78        29.2867   23.1146    2.8956 H         1 UNK         0.0745 
     79 H79        31.5573   21.9906    0.2273 H         1 UNK         0.0705 
     80 H80        31.2152   22.2039    1.9188 H         1 UNK         0.0705 
     81 H81        31.0954   24.5707    2.8820 H         1 UNK         0.1334 
     82 H82        33.3302   27.5317    0.7390 H         1 UNK         0.1417 
     83 H83        32.3349   23.8160   -1.1563 H         1 UNK         0.1562 
     84 H84        34.1894   25.2702   -2.0021 H         1 UNK         0.0748 
     85 H85        34.4648   26.8529   -1.3343 H         1 UNK         0.0748 
     86 H86        32.6600   29.2326   -2.9724 H         1 UNK         0.0940 
     87 H87        32.8568   28.6946   -1.3298 H         1 UNK         0.0940 
     88 H88        30.2560   28.6685   -2.9425 H         1 UNK         0.0703 
     89 H89        30.8557   27.1686   -0.6086 H         1 UNK         0.3081 
     90 H90        29.3054   25.6506    0.0095 H         1 UNK         0.0719 
     91 H91        27.6258   27.6792    1.5914 H         1 UNK         0.0809 
     92 H92        28.2559   26.1525    2.2094 H         1 UNK         0.0809 
     93 H93        29.3544   27.4470    1.7772 H         1 UNK         0.0809 
     94 H94        26.4848   25.8981    0.3392 H         1 UNK         0.2990 
     95 H95        24.9312   25.2328   -1.6678 H         1 UNK         0.0690 
     96 H96        24.4919   23.0521   -2.8153 H         1 UNK         0.0788 
     97 H97        26.1900   22.6070   -2.6514 H         1 UNK         0.0788 
     98 H98        25.7235   23.9618   -3.6736 H         1 UNK         0.0788 
     99 H99        26.1364   23.3802    0.2254 H         1 UNK         0.2993 
    100 H100       23.5401   23.5106    2.2514 H         1 UNK         0.0949 
    101 H101       22.1437   21.7625    1.2477 H         1 UNK         0.0767 
    102 H102       23.5448   20.7814    0.8595 H         1 UNK         0.0767 
    103 H103       23.0952   21.0565    2.5431 H         1 UNK         0.0767 
    104 H104       25.5828   23.1447    3.0075 H         1 UNK         0.3013 
    105 H105       29.9845   29.6356    0.3419 H         1 UNK         0.3121 
    106 H106       29.4568   32.3932   -0.4198 H         1 UNK         0.0774 
    107 H107       30.8600   33.2834    1.4715 H         1 UNK         0.0815 
    108 H108       31.4821   31.6706    1.7897 H         1 UNK         0.0815 
    109 H109       31.8790   32.4911    0.2812 H         1 UNK         0.0815 
    110 H110       28.1427   33.4169    1.2327 H         1 UNK         0.2987 
    111 H111       26.3248   31.6054    2.5813 H         1 UNK         0.0949 
    112 H112       26.5325   34.6677    2.6396 H         1 UNK         0.0806 
    113 H113       25.5305   33.7195    1.5395 H         1 UNK         0.0806 
    114 H114       25.1888   33.7201    3.2611 H         1 UNK         0.0806 
    115 H115       29.1275   33.4706    3.5278 H         1 UNK         0.3010 
    116 H116       28.7894   32.9420    6.4288 H         1 UNK         0.0829 
    117 H117       29.6560   35.1904    5.7093 H         1 UNK         0.0813 
    118 H118       30.8755   34.3050    6.6089 H         1 UNK         0.0813 
    119 H119       30.9905   34.4130    4.8583 H         1 UNK         0.0813 
    120 H120       30.4601   31.7506    7.5430 H         1 UNK         0.3038 
    121 H121       31.3590   29.3628    6.1873 H         1 UNK         0.0769 
    122 H122       32.1207   28.7119    8.4553 H         1 UNK         0.0811 
    123 H123       30.4789   29.3265    8.5105 H         1 UNK         0.0811 
    124 H124       31.8192   30.3374    9.0540 H         1 UNK         0.0811 
    125 H125       32.5514   31.1905    4.7455 H         1 UNK         0.3204 
    126 H126       35.1501   32.0801    5.4653 H         1 UNK         0.0748 
    127 H127       35.4168   32.4277    3.0002 H         1 UNK         0.0771 
    128 H128       33.9822   31.4576    2.6936 H         1 UNK         0.0771 
    129 H129       33.8475   32.9942    3.5477 H         1 UNK         0.0771 
    130 H130       34.0593   28.9375    4.4657 H         1 UNK         0.2980 
    131 H131       36.6569   27.8167    3.8577 H         1 UNK         0.0545 
    132 H132       36.2963   27.6117    7.8525 H         1 UNK         0.3459 
    133 H133       35.3165   28.7206    6.9258 H         1 UNK         0.3459 
    134 H134       34.8195   26.8319    2.7200 H         1 UNK         0.0616 
    135 H135       35.3975   25.6327    3.8272 H         1 UNK         0.0616 
    136 H136       31.1344   27.1263    3.5296 H         1 UNK         0.0634 
    137 H137       32.4591   28.0755    2.9037 H         1 UNK         0.0634 
@<TRIPOS>BOND
     1    1    2 1    
     2    1   72 1    
     3    1   73 1    
     4    1   74 1    
     5    2    3 2    
     6    2    4 am   BACKBONE|DICT|INTERRES
     7    4    5 1    
     8    4   75 1    
     9    5    6 1    
    10    5   35 1    
    11    5   76 1    
    12    6    7 1    
    13    6   77 1    
    14    6   78 1    
    15    7    8 1    
    16    8    9 1    
    17    8   79 1    
    18    8   80 1    
    19    9   10 ar   
    20    9   14 ar   
    21   10   11 ar   
    22   10   81 1    
    23   11   12 ar   
    24   11   71 1    
    25   12   13 ar   
    26   12   82 1    
    27   13   14 ar   
    28   13   15 1    
    29   14   83 1    
    30   15   16 1    
    31   15   84 1    
    32   15   85 1    
    33   16   17 1    
    34   17   18 1    
    35   17   86 1    
    36   17   87 1    
    37   18   19 1    
    38   18   37 1    
    39   18   88 1    
    40   19   20 am   BACKBONE|DICT|INTERRES
    41   19   89 1    
    42   20   21 2    
    43   20   22 1    
    44   22   23 1    
    45   22   24 1    
    46   22   90 1    
    47   23   91 1    
    48   23   92 1    
    49   23   93 1    
    50   24   25 am   BACKBONE|DICT|INTERRES
    51   24   94 1    
    52   25   26 2    
    53   25   27 1    
    54   27   28 1    
    55   27   29 1    
    56   27   95 1    
    57   28   96 1    
    58   28   97 1    
    59   28   98 1    
    60   29   30 am   BACKBONE|DICT|INTERRES
    61   29   99 1    
    62   30   31 2    
    63   30   32 1    
    64   32   33 1    
    65   32   34 1    
    66   32  100 1    
    67   33  101 1    
    68   33  102 1    
    69   33  103 1    
    70   34   35 am   BACKBONE|DICT|INTERRES
    71   34  104 1    
    72   35   36 2    
    73   37   38 2    
    74   37   39 am   BACKBONE|DICT|INTERRES
    75   39   40 1    
    76   39  105 1    
    77   40   41 1    
    78   40   42 1    
    79   40  106 1    
    80   41  107 1    
    81   41  108 1    
    82   41  109 1    
    83   42   43 2    
    84   42   44 am   BACKBONE|DICT|INTERRES
    85   44   45 1    
    86   44  110 1    
    87   45   46 1    
    88   45   47 1    
    89   45  111 1    
    90   46  112 1    
    91   46  113 1    
    92   46  114 1    
    93   47   48 2    
    94   47   49 am   BACKBONE|DICT|INTERRES
    95   49   50 1    
    96   49  115 1    
    97   50   51 1    
    98   50   52 1    
    99   50  116 1    
   100   51  117 1    
   101   51  118 1    
   102   51  119 1    
   103   52   53 2    
   104   52   54 am   BACKBONE|DICT|INTERRES
   105   54   55 1    
   106   54  120 1    
   107   55   56 1    
   108   55   57 1    
   109   55  121 1    
   110   56  122 1    
   111   56  123 1    
   112   56  124 1    
   113   57   58 2    
   114   57   59 am   BACKBONE|DICT|INTERRES
   115   59   60 1    
   116   59  125 1    
   117   60   61 1    
   118   60   62 1    
   119   60  126 1    
   120   61  127 1    
   121   61  128 1    
   122   61  129 1    
   123   62   63 2    
   124   62   64 am   BACKBONE|DICT|INTERRES
   125   64   65 1    
   126   64  130 1    
   127   65   66 1    
   128   65   69 1    
   129   65  131 1    
   130   66   67 am   BACKBONE|DICT|INTERRES
   131   66   68 2    
   132   67  132 1    
   133   67  133 1    
   134   69   70 1    
   135   69  134 1    
   136   69  135 1    
   137   70   71 1    
   138   71  136 1    
   139   71  137 1    
@<TRIPOS>SUBSTRUCTURE
     1 UNK         1 GROUP             0       ****    0 ROOT    
