@<TRIPOS>MOLECULE
3R136
137   139    1
SMALL
USER_CHARGES


@<TRIPOS>ATOM
      1 CA         34.6469   20.1185   -0.1945 C.3       0 UNK        -0.1979 
      2 C          33.9452   21.4684   -0.2274 C.2       0 UNK         0.4864 
      3 O          34.5887   22.4858   -0.4877 O.2       0 UNK        -0.5359 
      4 N          32.6337   21.4832    0.0299 N.am      1 UNK        -0.4318 
      5 CA         31.7830   22.6694    0.0310 C.3       1 UNK         0.0824 
      6 C6         31.8467   23.4104    1.3942 C.3       12 UNK        -0.0944 
      7 S7         30.7386   24.8579    1.5035 S.3       12 UNK        -0.2672 
      8 C8         29.4083   24.2038    2.5554 C.3       12 UNK         0.0333 
      9 C9         29.6360   24.5545    4.0154 C.ar      12 UNK        -0.0807 
     10 C10        30.3572   23.7001    4.8559 C.ar      12 UNK        -0.0894 
     11 C11        30.5365   24.0225    6.2051 C.ar      12 UNK        -0.0804 
     12 C12        29.9623   25.1928    6.7128 C.ar      12 UNK        -0.0824 
     13 C13        29.2554   26.0613    5.8799 C.ar      12 UNK        -0.0762 
     14 C14        29.1058   25.7412    4.5270 C.ar      12 UNK        -0.0782 
     15 C15        28.7085   27.3660    6.4386 C.3       12 UNK         0.0230 
     16 S16        26.9740   27.6629    5.9631 S.3       12 UNK        -0.2608 
     17 C17        27.0133   29.4760    5.8244 C.3       12 UNK        -0.0989 
     18 CA         27.5679   29.9245    4.4502 C.3       5 UNK         0.0716 
     19 N          26.6788   29.5584    3.3468 N.am      5 UNK        -0.4135 
     20 C          26.9533   29.7064    2.0449 C.2       4 UNK         0.5031 
     21 O          27.9873   30.2154    1.6033 O.2       4 UNK        -0.5229 
     22 CA         25.8538   29.2482    1.0717 C.3       4 UNK         0.0329 
     23 CB         25.0982   30.4687    0.5215 C.3       4 UNK        -0.2001 
     24 N          26.3551   28.4533   -0.0533 N.am      4 UNK        -0.4303 
     25 C          27.0080   27.2862    0.0354 C.2       3 UNK         0.5044 
     26 O          27.3198   26.7416    1.0970 O.2       3 UNK        -0.5152 
     27 CA         27.3291   26.5975   -1.3002 C.3       3 UNK         0.0319 
     28 CB         28.3655   27.3833   -2.1248 C.3       3 UNK        -0.2001 
     29 N          27.8137   25.2369   -1.0623 N.am      3 UNK        -0.4354 
     30 C          27.6480   24.2092   -1.9061 C.2       2 UNK         0.4964 
     31 O          27.0820   24.3132   -2.9960 O.2       2 UNK        -0.5047 
     32 CA         28.2446   22.8560   -1.4814 C.3       2 UNK         0.0288 
     33 CB         28.1292   21.7742   -2.5787 C.3       2 UNK        -0.2113 
     34 N          29.6405   23.0454   -1.0906 N.am      2 UNK        -0.4145 
     35 C          30.3631   22.2051   -0.3399 C.2       1 UNK         0.5006 
     36 O          29.9508   21.1191    0.0788 O.2       1 UNK        -0.5103 
     37 C          27.8638   31.4326    4.4642 C.2       5 UNK         0.5055 
     38 O          26.9276   32.2317    4.5391 O.2       5 UNK        -0.5220 
     39 N          29.1548   31.7822    4.3859 N.am      6 UNK        -0.4450 
     40 CA         29.7621   33.1212    4.3951 C.3       6 UNK         0.0367 
     41 CB         29.4153   33.8954    5.6815 C.3       6 UNK        -0.1929 
     42 C          29.4638   33.9620    3.1416 C.2       6 UNK         0.5070 
     43 O          30.3484   34.6806    2.6763 O.2       6 UNK        -0.5237 
     44 N          28.2441   33.8486    2.6042 N.am      7 UNK        -0.4739 
     45 CA         27.7944   34.4831    1.3665 C.3       7 UNK         0.0276 
     46 CB         26.2704   34.3262    1.2473 C.3       7 UNK        -0.1927 
     47 C          28.4943   33.9324    0.1124 C.2       7 UNK         0.5013 
     48 O          28.6394   34.6776   -0.8580 O.2       7 UNK        -0.5193 
     49 N          28.9120   32.6591    0.1484 N.am      8 UNK        -0.4253 
     50 CA         29.6152   31.9941   -0.9463 C.3       8 UNK         0.0242 
     51 CB         28.6281   31.1344   -1.7518 C.3       8 UNK        -0.2000 
     52 C          30.8058   31.1575   -0.4591 C.2       8 UNK         0.4948 
     53 O          31.8615   31.2230   -1.0914 O.2       8 UNK        -0.5275 
     54 N          30.6377   30.3760    0.6175 N.am      9 UNK        -0.4246 
     55 CA         31.6340   29.4023    1.0722 C.3       9 UNK         0.0261 
     56 CB         31.4594   28.0990    0.2670 C.3       9 UNK        -0.1959 
     57 C          31.5648   29.1590    2.5888 C.2       9 UNK         0.5033 
     58 O          30.8214   29.8362    3.3013 O.2       9 UNK        -0.5390 
     59 N          32.3715   28.1993    3.0491 N.am      10 UNK        -0.4215 
     60 CA         32.5060   27.7027    4.4152 C.3       10 UNK         0.0240 
     61 CB         33.2758   28.7176    5.2836 C.3       10 UNK        -0.1982 
     62 C          33.2253   26.3446    4.3319 C.2       10 UNK         0.4970 
     63 O          33.5705   25.9185    3.2259 O.2       10 UNK        -0.4916 
     64 N          33.4518   25.6946    5.4829 N.am      11 UNK        -0.4279 
     65 CA         34.0460   24.3460    5.5844 C.3       11 UNK         0.1003 
     66 C          35.4487   24.1652    4.9292 C.2       11 UNK         0.5709 
     67 N          36.2509   25.2136    4.7850 N.am      11 UNK        -0.7358 
     68 O          35.8143   23.0525    4.5580 O.2       11 UNK        -0.4999 
     69 C69        34.1072   23.8209    7.0467 C.3       12 UNK        -0.0954 
     70 S70        32.6060   24.0159    8.0626 S.3       12 UNK        -0.2268 
     71 C71        31.3348   23.1055    7.1235 C.3       12 UNK         0.0203 
     72 H72        35.4385   20.1259    0.5544 H         1 UNK         0.0888 
     73 H73        33.9598   19.3076    0.0470 H         1 UNK         0.0888 
     74 H74        35.0961   19.9050   -1.1640 H         1 UNK         0.0888 
     75 H75        32.1287   20.6212    0.1985 H         1 UNK         0.3017 
     76 H76        32.1285   23.3466   -0.7537 H         1 UNK         0.0873 
     77 H77        31.6369   22.7213    2.2132 H         1 UNK         0.0745 
     78 H78        32.8634   23.7669    1.5668 H         1 UNK         0.0745 
     79 H79        29.3125   23.1242    2.4310 H         1 UNK         0.0705 
     80 H80        28.4593   24.6239    2.2215 H         1 UNK         0.0705 
     81 H81        30.7783   22.7867    4.4597 H         1 UNK         0.1334 
     82 H82        30.0892   25.4386    7.7584 H         1 UNK         0.1417 
     83 H83        28.5683   26.4129    3.8697 H         1 UNK         0.1562 
     84 H84        29.3479   28.1734    6.0806 H         1 UNK         0.0748 
     85 H85        28.7737   27.3848    7.5276 H         1 UNK         0.0748 
     86 H86        27.6158   29.8724    6.6450 H         1 UNK         0.0940 
     87 H87        26.0046   29.8639    5.9801 H         1 UNK         0.0940 
     88 H88        28.5056   29.3970    4.2736 H         1 UNK         0.0703 
     89 H89        25.7953   29.1522    3.6155 H         1 UNK         0.3081 
     90 H90        25.1443   28.6211    1.6156 H         1 UNK         0.0719 
     91 H91        25.7517   31.1137   -0.0680 H         1 UNK         0.0809 
     92 H92        24.2624   30.1689   -0.1108 H         1 UNK         0.0809 
     93 H93        24.6874   31.0726    1.3318 H         1 UNK         0.0809 
     94 H94        26.1573   28.8186   -0.9728 H         1 UNK         0.2990 
     95 H95        26.3945   26.5458   -1.8633 H         1 UNK         0.0690 
     96 H96        28.6244   26.8580   -3.0442 H         1 UNK         0.0788 
     97 H97        29.2854   27.5485   -1.5665 H         1 UNK         0.0788 
     98 H98        27.9766   28.3571   -2.4195 H         1 UNK         0.0788 
     99 H99        28.2263   25.0920   -0.1488 H         1 UNK         0.2993 
    100 H100       27.6790   22.5239   -0.6080 H         1 UNK         0.0949 
    101 H101       28.6949   22.0465   -3.4705 H         1 UNK         0.0767 
    102 H102       28.4961   20.8082   -2.2322 H         1 UNK         0.0767 
    103 H103       27.0906   21.6300   -2.8795 H         1 UNK         0.0767 
    104 H104       30.0527   23.9251   -1.3726 H         1 UNK         0.3013 
    105 H105       29.8156   31.0307    4.1759 H         1 UNK         0.3121 
    106 H106       30.8394   32.9466    4.3985 H         1 UNK         0.0774 
    107 H107       29.9621   34.8382    5.7246 H         1 UNK         0.0815 
    108 H108       28.3537   34.1364    5.7413 H         1 UNK         0.0815 
    109 H109       29.6816   33.3254    6.5714 H         1 UNK         0.0815 
    110 H110       27.5750   33.2664    3.1016 H         1 UNK         0.2987 
    111 H111       28.0280   35.5482    1.4301 H         1 UNK         0.0949 
    112 H112       25.8985   34.7927    0.3338 H         1 UNK         0.0806 
    113 H113       25.9751   33.2773    1.2231 H         1 UNK         0.0806 
    114 H114       25.7566   34.7993    2.0843 H         1 UNK         0.0806 
    115 H115       28.7234   32.1011    0.9732 H         1 UNK         0.3010 
    116 H116       30.0306   32.7443   -1.6229 H         1 UNK         0.0829 
    117 H117       27.8399   31.7446   -2.1929 H         1 UNK         0.0813 
    118 H118       29.1351   30.6169   -2.5672 H         1 UNK         0.0813 
    119 H119       28.1560   30.3806   -1.1234 H         1 UNK         0.0813 
    120 H120       29.7417   30.3485    1.1039 H         1 UNK         0.3038 
    121 H121       32.6329   29.8001    0.8807 H         1 UNK         0.0769 
    122 H122       32.2321   27.3662    0.5001 H         1 UNK         0.0811 
    123 H123       31.5196   28.2819   -0.8058 H         1 UNK         0.0811 
    124 H124       30.4930   27.6388    0.4755 H         1 UNK         0.0811 
    125 H125       32.9025   27.6395    2.3904 H         1 UNK         0.3204 
    126 H126       31.5103   27.5383    4.8286 H         1 UNK         0.0748 
    127 H127       33.3618   28.3753    6.3152 H         1 UNK         0.0771 
    128 H128       34.2855   28.8839    4.9061 H         1 UNK         0.0771 
    129 H129       32.7685   29.6822    5.3117 H         1 UNK         0.0771 
    130 H130       33.1411   26.1006    6.3525 H         1 UNK         0.2980 
    131 H131       33.3756   23.6881    5.0291 H         1 UNK         0.0545 
    132 H132       35.9539   26.1283    5.0831 H         1 UNK         0.3459 
    133 H133       37.1557   25.0884    4.3599 H         1 UNK         0.3459 
    134 H134       34.9099   24.3264    7.5872 H         1 UNK         0.0616 
    135 H135       34.3679   22.7607    7.0519 H         1 UNK         0.0616 
    136 H136       30.6461   22.6420    7.8308 H         1 UNK         0.0634 
    137 H137       31.8018   22.2913    6.5672 H         1 UNK         0.0634 
@<TRIPOS>BOND
     1    1    2 1    
     2    1   72 1    
     3    1   73 1    
     4    1   74 1    
     5    2    3 2    
     6    2    4 am   BACKBONE|DICT|INTERRES
     7    4    5 1    
     8    4   75 1    
     9    5    6 1    
    10    5   35 1    
    11    5   76 1    
    12    6    7 1    
    13    6   77 1    
    14    6   78 1    
    15    7    8 1    
    16    8    9 1    
    17    8   79 1    
    18    8   80 1    
    19    9   10 ar   
    20    9   14 ar   
    21   10   11 ar   
    22   10   81 1    
    23   11   12 ar   
    24   11   71 1    
    25   12   13 ar   
    26   12   82 1    
    27   13   14 ar   
    28   13   15 1    
    29   14   83 1    
    30   15   16 1    
    31   15   84 1    
    32   15   85 1    
    33   16   17 1    
    34   17   18 1    
    35   17   86 1    
    36   17   87 1    
    37   18   19 1    
    38   18   37 1    
    39   18   88 1    
    40   19   20 am   BACKBONE|DICT|INTERRES
    41   19   89 1    
    42   20   21 2    
    43   20   22 1    
    44   22   23 1    
    45   22   24 1    
    46   22   90 1    
    47   23   91 1    
    48   23   92 1    
    49   23   93 1    
    50   24   25 am   BACKBONE|DICT|INTERRES
    51   24   94 1    
    52   25   26 2    
    53   25   27 1    
    54   27   28 1    
    55   27   29 1    
    56   27   95 1    
    57   28   96 1    
    58   28   97 1    
    59   28   98 1    
    60   29   30 am   BACKBONE|DICT|INTERRES
    61   29   99 1    
    62   30   31 2    
    63   30   32 1    
    64   32   33 1    
    65   32   34 1    
    66   32  100 1    
    67   33  101 1    
    68   33  102 1    
    69   33  103 1    
    70   34   35 am   BACKBONE|DICT|INTERRES
    71   34  104 1    
    72   35   36 2    
    73   37   38 2    
    74   37   39 am   BACKBONE|DICT|INTERRES
    75   39   40 1    
    76   39  105 1    
    77   40   41 1    
    78   40   42 1    
    79   40  106 1    
    80   41  107 1    
    81   41  108 1    
    82   41  109 1    
    83   42   43 2    
    84   42   44 am   BACKBONE|DICT|INTERRES
    85   44   45 1    
    86   44  110 1    
    87   45   46 1    
    88   45   47 1    
    89   45  111 1    
    90   46  112 1    
    91   46  113 1    
    92   46  114 1    
    93   47   48 2    
    94   47   49 am   BACKBONE|DICT|INTERRES
    95   49   50 1    
    96   49  115 1    
    97   50   51 1    
    98   50   52 1    
    99   50  116 1    
   100   51  117 1    
   101   51  118 1    
   102   51  119 1    
   103   52   53 2    
   104   52   54 am   BACKBONE|DICT|INTERRES
   105   54   55 1    
   106   54  120 1    
   107   55   56 1    
   108   55   57 1    
   109   55  121 1    
   110   56  122 1    
   111   56  123 1    
   112   56  124 1    
   113   57   58 2    
   114   57   59 am   BACKBONE|DICT|INTERRES
   115   59   60 1    
   116   59  125 1    
   117   60   61 1    
   118   60   62 1    
   119   60  126 1    
   120   61  127 1    
   121   61  128 1    
   122   61  129 1    
   123   62   63 2    
   124   62   64 am   BACKBONE|DICT|INTERRES
   125   64   65 1    
   126   64  130 1    
   127   65   66 1    
   128   65   69 1    
   129   65  131 1    
   130   66   67 am   BACKBONE|DICT|INTERRES
   131   66   68 2    
   132   67  132 1    
   133   67  133 1    
   134   69   70 1    
   135   69  134 1    
   136   69  135 1    
   137   70   71 1    
   138   71  136 1    
   139   71  137 1    
@<TRIPOS>SUBSTRUCTURE
     1 UNK         1 GROUP             0       ****    0 ROOT    
