@<TRIPOS>MOLECULE
3R136
137   139    1
SMALL
USER_CHARGES


@<TRIPOS>ATOM
      1 CA         25.4243   20.0135    2.2005 C.3       0 UNK        -0.1979 
      2 C          26.2839   20.9547    1.3696 C.2       0 UNK         0.4864 
      3 O          25.7474   21.8243    0.6842 O.2       0 UNK        -0.5359 
      4 N          27.6114   20.7797    1.4196 N.am      1 UNK        -0.4318 
      5 CA         28.5980   21.6175    0.7255 C.3       1 UNK         0.0824 
      6 C6         29.9764   20.9083    0.6707 C.3       12 UNK        -0.0944 
      7 S7         30.9821   21.3983   -0.7680 S.3       12 UNK        -0.2672 
      8 C8         32.5615   21.8710    0.0087 C.3       12 UNK         0.0333 
      9 C9         32.6105   23.3539    0.3455 C.ar      12 UNK        -0.0807 
     10 C10        32.4738   23.8003    1.6650 C.ar      12 UNK        -0.0894 
     11 C11        32.5585   25.1657    1.9654 C.ar      12 UNK        -0.0804 
     12 C12        32.7786   26.0814    0.9304 C.ar      12 UNK        -0.0824 
     13 C13        32.8864   25.6487   -0.3938 C.ar      12 UNK        -0.0762 
     14 C14        32.8183   24.2831   -0.6774 C.ar      12 UNK        -0.0782 
     15 C15        33.0302   26.6606   -1.5227 C.3       12 UNK         0.0230 
     16 S16        31.5321   26.7331   -2.5618 S.3       12 UNK        -0.2608 
     17 C17        30.2298   26.8914   -1.2937 C.3       12 UNK        -0.0989 
     18 CA         28.8849   27.4364   -1.8396 C.3       5 UNK         0.0716 
     19 N          27.7779   26.8724   -1.0628 N.am      5 UNK        -0.4135 
     20 C          26.4783   26.8984   -1.3836 C.2       4 UNK         0.5031 
     21 O          26.0424   27.3151   -2.4567 O.2       4 UNK        -0.5229 
     22 CA         25.4967   26.4266   -0.2932 C.3       4 UNK         0.0329 
     23 CB         25.1128   24.9580   -0.5242 C.3       4 UNK        -0.2001 
     24 N          26.0152   26.5787    1.0737 N.am      4 UNK        -0.4303 
     25 C          26.3801   27.7296    1.6564 C.2       3 UNK         0.5044 
     26 O          26.2779   28.8240    1.1035 O.2       3 UNK        -0.5152 
     27 CA         27.0306   27.6647    3.0522 C.3       3 UNK         0.0319 
     28 CB         25.9760   27.7830    4.1679 C.3       3 UNK        -0.2001 
     29 N          27.9273   26.5184    3.2696 N.am      3 UNK        -0.4354 
     30 C          27.6256   25.2134    3.3190 C.2       2 UNK         0.4964 
     31 O          26.4856   24.7582    3.2056 O.2       2 UNK        -0.5047 
     32 CA         28.8081   24.2557    3.5221 C.3       2 UNK         0.0288 
     33 CB         28.9395   23.8602    5.0012 C.3       2 UNK        -0.2113 
     34 N          28.6951   23.0488    2.7071 N.am      2 UNK        -0.4145 
     35 C          28.7067   23.0178    1.3653 C.2       1 UNK         0.5006 
     36 O          28.7897   24.0207    0.6522 O.2       1 UNK        -0.5103 
     37 C          28.8856   28.9874   -1.8798 C.2       5 UNK         0.5055 
     38 O          29.7146   29.5641   -2.5828 O.2       5 UNK        -0.5220 
     39 N          28.0163   29.6428   -1.0916 N.am      6 UNK        -0.4450 
     40 CA         27.8819   31.0875   -0.8488 C.3       6 UNK         0.0367 
     41 CB         27.7485   31.9013   -2.1511 C.3       6 UNK        -0.1929 
     42 C          28.9685   31.6634    0.0753 C.2       6 UNK         0.5070 
     43 O          28.7052   32.6451    0.7700 O.2       6 UNK        -0.5237 
     44 N          30.1438   31.0247    0.1331 N.am      7 UNK        -0.4739 
     45 CA         31.2729   31.3444    1.0119 C.3       7 UNK         0.0276 
     46 CB         32.5441   30.7007    0.4267 C.3       7 UNK        -0.1927 
     47 C          31.0376   30.9314    2.4815 C.2       7 UNK         0.5013 
     48 O          31.9366   30.3769    3.1151 O.2       7 UNK        -0.5193 
     49 N          29.8461   31.2234    3.0210 N.am      8 UNK        -0.4253 
     50 CA         29.4120   30.8739    4.3794 C.3       8 UNK         0.0242 
     51 CB         27.9572   31.3252    4.5825 C.3       8 UNK        -0.2000 
     52 C          30.3162   31.4360    5.4914 C.2       8 UNK         0.4948 
     53 O          30.4642   30.7940    6.5309 O.2       8 UNK        -0.5275 
     54 N          30.9450   32.5915    5.2327 N.am      9 UNK        -0.4246 
     55 CA         31.9567   33.2067    6.0944 C.3       9 UNK         0.0261 
     56 CB         32.2515   34.6293    5.5917 C.3       9 UNK        -0.1959 
     57 C          33.2607   32.3915    6.1981 C.2       9 UNK         0.5033 
     58 O          33.9452   32.4981    7.2168 O.2       9 UNK        -0.5390 
     59 N          33.5840   31.5986    5.1650 N.am      10 UNK        -0.4215 
     60 CA         34.7088   30.6624    5.1712 C.3       10 UNK         0.0240 
     61 CB         35.2332   30.4556    3.7399 C.3       10 UNK        -0.1982 
     62 C          34.3042   29.3227    5.8035 C.2       10 UNK         0.4970 
     63 O          35.1096   28.7407    6.5313 O.2       10 UNK        -0.4916 
     64 N          33.0755   28.8623    5.5248 N.am      11 UNK        -0.4279 
     65 CA         32.4998   27.6403    6.1076 C.3       11 UNK         0.1003 
     66 C          32.2809   27.7246    7.6434 C.2       11 UNK         0.5709 
     67 N          31.7976   28.8439    8.1675 N.am      11 UNK        -0.7358 
     68 O          32.5549   26.7667    8.3624 O.2       11 UNK        -0.4999 
     69 C69        31.1906   27.1954    5.4044 C.3       12 UNK        -0.0954 
     70 S70        31.3118   27.0662    3.5915 S.3       12 UNK        -0.2268 
     71 C71        32.4409   25.6443    3.4089 C.3       12 UNK         0.0203 
     72 H72        26.0244   19.2850    2.7456 H         1 UNK         0.0888 
     73 H73        24.8404   20.5815    2.9242 H         1 UNK         0.0888 
     74 H74        24.7336   19.4697    1.5566 H         1 UNK         0.0888 
     75 H75        27.9864   20.0295    1.9829 H         1 UNK         0.3017 
     76 H76        28.2367   21.7548   -0.2964 H         1 UNK         0.0873 
     77 H77        29.8361   19.8301    0.5761 H         1 UNK         0.0745 
     78 H78        30.5340   21.0464    1.5992 H         1 UNK         0.0745 
     79 H79        33.3689   21.6408   -0.6881 H         1 UNK         0.0705 
     80 H80        32.7505   21.2596    0.8923 H         1 UNK         0.0705 
     81 H81        32.3129   23.0832    2.4583 H         1 UNK         0.1334 
     82 H82        32.8420   27.1371    1.1565 H         1 UNK         0.1417 
     83 H83        32.9028   23.9447   -1.7015 H         1 UNK         0.1562 
     84 H84        33.8856   26.3946   -2.1452 H         1 UNK         0.0748 
     85 H85        33.2351   27.6568   -1.1277 H         1 UNK         0.0748 
     86 H86        30.5922   27.4937   -0.4577 H         1 UNK         0.0940 
     87 H87        30.0918   25.8866   -0.8885 H         1 UNK         0.0940 
     88 H88        28.7546   27.0911   -2.8673 H         1 UNK         0.0703 
     89 H89        28.0271   26.4498   -0.1794 H         1 UNK         0.3081 
     90 H90        24.5960   27.0383   -0.3742 H         1 UNK         0.0719 
     91 H91        25.9810   24.3015   -0.4501 H         1 UNK         0.0809 
     92 H92        24.3754   24.6179    0.2032 H         1 UNK         0.0809 
     93 H93        24.6800   24.8164   -1.5155 H         1 UNK         0.0809 
     94 H94        26.1116   25.7319    1.6290 H         1 UNK         0.2990 
     95 H95        27.6747   28.5420    3.1227 H         1 UNK         0.0690 
     96 H96        25.2782   26.9453    4.1628 H         1 UNK         0.0788 
     97 H97        25.3879   28.6943    4.0506 H         1 UNK         0.0788 
     98 H98        26.4441   27.8248    5.1515 H         1 UNK         0.0788 
     99 H99        28.9055   26.7656    3.3558 H         1 UNK         0.2993 
    100 H100       29.7215   24.7580    3.2075 H         1 UNK         0.0949 
    101 H101       28.0818   23.2768    5.3388 H         1 UNK         0.0767 
    102 H102       29.8396   23.2704    5.1762 H         1 UNK         0.0767 
    103 H103       29.0005   24.7419    5.6400 H         1 UNK         0.0767 
    104 H104       28.5679   22.1804    3.2039 H         1 UNK         0.3013 
    105 H105       27.3980   29.0865   -0.5083 H         1 UNK         0.3121 
    106 H106       26.9407   31.1949   -0.3069 H         1 UNK         0.0774 
    107 H107       27.4797   32.9354   -1.9321 H         1 UNK         0.0815 
    108 H108       28.6793   31.9278   -2.7178 H         1 UNK         0.0815 
    109 H109       26.9708   31.4937   -2.7969 H         1 UNK         0.0815 
    110 H110       30.2747   30.2512   -0.5044 H         1 UNK         0.2987 
    111 H111       31.4131   32.4274    1.0078 H         1 UNK         0.0949 
    112 H112       32.4869   29.6118    0.4447 H         1 UNK         0.0806 
    113 H113       32.7106   31.0119   -0.6048 H         1 UNK         0.0806 
    114 H114       33.4288   30.9905    0.9952 H         1 UNK         0.0806 
    115 H115       29.1858   31.7243    2.4337 H         1 UNK         0.3010 
    116 H116       29.4465   29.7859    4.4565 H         1 UNK         0.0829 
    117 H117       27.5913   31.0293    5.5668 H         1 UNK         0.0813 
    118 H118       27.8574   32.4089    4.5087 H         1 UNK         0.0813 
    119 H119       27.2924   30.8781    3.8433 H         1 UNK         0.0813 
    120 H120       30.7511   33.0517    4.3552 H         1 UNK         0.3038 
    121 H121       31.5373   33.2791    7.1004 H         1 UNK         0.0769 
    122 H122       32.9819   35.1254    6.2327 H         1 UNK         0.0811 
    123 H123       31.3524   35.2458    5.5924 H         1 UNK         0.0811 
    124 H124       32.6572   34.6250    4.5792 H         1 UNK         0.0811 
    125 H125       32.9405   31.5126    4.3850 H         1 UNK         0.3204 
    126 H126       35.5229   31.0840    5.7650 H         1 UNK         0.0748 
    127 H127       36.1298   29.8344    3.7441 H         1 UNK         0.0771 
    128 H128       34.5022   29.9589    3.1018 H         1 UNK         0.0771 
    129 H129       35.4981   31.4040    3.2725 H         1 UNK         0.0771 
    130 H130       32.4967   29.3637    4.8614 H         1 UNK         0.2980 
    131 H131       33.2344   26.8488    5.9506 H         1 UNK         0.0545 
    132 H132       31.6593   28.9036    9.1630 H         1 UNK         0.3459 
    133 H133       31.4824   29.6015    7.5664 H         1 UNK         0.3459 
    134 H134       30.8668   26.2285    5.7920 H         1 UNK         0.0616 
    135 H135       30.3851   27.8961    5.6298 H         1 UNK         0.0616 
    136 H136       33.4332   25.9281    3.7608 H         1 UNK         0.0634 
    137 H137       32.0969   24.8343    4.0538 H         1 UNK         0.0634 
@<TRIPOS>BOND
     1    1    2 1    
     2    1   72 1    
     3    1   73 1    
     4    1   74 1    
     5    2    3 2    
     6    2    4 am   BACKBONE|DICT|INTERRES
     7    4    5 1    
     8    4   75 1    
     9    5    6 1    
    10    5   35 1    
    11    5   76 1    
    12    6    7 1    
    13    6   77 1    
    14    6   78 1    
    15    7    8 1    
    16    8    9 1    
    17    8   79 1    
    18    8   80 1    
    19    9   10 ar   
    20    9   14 ar   
    21   10   11 ar   
    22   10   81 1    
    23   11   12 ar   
    24   11   71 1    
    25   12   13 ar   
    26   12   82 1    
    27   13   14 ar   
    28   13   15 1    
    29   14   83 1    
    30   15   16 1    
    31   15   84 1    
    32   15   85 1    
    33   16   17 1    
    34   17   18 1    
    35   17   86 1    
    36   17   87 1    
    37   18   19 1    
    38   18   37 1    
    39   18   88 1    
    40   19   20 am   BACKBONE|DICT|INTERRES
    41   19   89 1    
    42   20   21 2    
    43   20   22 1    
    44   22   23 1    
    45   22   24 1    
    46   22   90 1    
    47   23   91 1    
    48   23   92 1    
    49   23   93 1    
    50   24   25 am   BACKBONE|DICT|INTERRES
    51   24   94 1    
    52   25   26 2    
    53   25   27 1    
    54   27   28 1    
    55   27   29 1    
    56   27   95 1    
    57   28   96 1    
    58   28   97 1    
    59   28   98 1    
    60   29   30 am   BACKBONE|DICT|INTERRES
    61   29   99 1    
    62   30   31 2    
    63   30   32 1    
    64   32   33 1    
    65   32   34 1    
    66   32  100 1    
    67   33  101 1    
    68   33  102 1    
    69   33  103 1    
    70   34   35 am   BACKBONE|DICT|INTERRES
    71   34  104 1    
    72   35   36 2    
    73   37   38 2    
    74   37   39 am   BACKBONE|DICT|INTERRES
    75   39   40 1    
    76   39  105 1    
    77   40   41 1    
    78   40   42 1    
    79   40  106 1    
    80   41  107 1    
    81   41  108 1    
    82   41  109 1    
    83   42   43 2    
    84   42   44 am   BACKBONE|DICT|INTERRES
    85   44   45 1    
    86   44  110 1    
    87   45   46 1    
    88   45   47 1    
    89   45  111 1    
    90   46  112 1    
    91   46  113 1    
    92   46  114 1    
    93   47   48 2    
    94   47   49 am   BACKBONE|DICT|INTERRES
    95   49   50 1    
    96   49  115 1    
    97   50   51 1    
    98   50   52 1    
    99   50  116 1    
   100   51  117 1    
   101   51  118 1    
   102   51  119 1    
   103   52   53 2    
   104   52   54 am   BACKBONE|DICT|INTERRES
   105   54   55 1    
   106   54  120 1    
   107   55   56 1    
   108   55   57 1    
   109   55  121 1    
   110   56  122 1    
   111   56  123 1    
   112   56  124 1    
   113   57   58 2    
   114   57   59 am   BACKBONE|DICT|INTERRES
   115   59   60 1    
   116   59  125 1    
   117   60   61 1    
   118   60   62 1    
   119   60  126 1    
   120   61  127 1    
   121   61  128 1    
   122   61  129 1    
   123   62   63 2    
   124   62   64 am   BACKBONE|DICT|INTERRES
   125   64   65 1    
   126   64  130 1    
   127   65   66 1    
   128   65   69 1    
   129   65  131 1    
   130   66   67 am   BACKBONE|DICT|INTERRES
   131   66   68 2    
   132   67  132 1    
   133   67  133 1    
   134   69   70 1    
   135   69  134 1    
   136   69  135 1    
   137   70   71 1    
   138   71  136 1    
   139   71  137 1    
@<TRIPOS>SUBSTRUCTURE
     1 UNK         1 GROUP             0       ****    0 ROOT    
