@<TRIPOS>MOLECULE
3R136
137   139    1
SMALL
USER_CHARGES


@<TRIPOS>ATOM
      1 CA         27.1994   22.4465   -0.4496 C.3       0 UNK        -0.1979 
      2 C          28.2123   23.4880   -0.9174 C.2       0 UNK         0.4864 
      3 O          28.0267   24.0511   -1.9941 O.2       0 UNK        -0.5359 
      4 N          29.2907   23.7872   -0.1774 N.am      1 UNK        -0.4318 
      5 CA         29.6576   23.3590    1.1812 C.3       1 UNK         0.0824 
      6 C6         29.8769   21.8292    1.3791 C.3       12 UNK        -0.0944 
      7 S7         30.9097   21.0624    0.0832 S.3       12 UNK        -0.2672 
      8 C8         32.6046   21.3164    0.7168 C.3       12 UNK         0.0333 
      9 C9         33.0757   22.7689    0.6653 C.ar      12 UNK        -0.0807 
     10 C10        33.8157   23.2968    1.7309 C.ar      12 UNK        -0.0894 
     11 C11        34.2709   24.6193    1.6969 C.ar      12 UNK        -0.0804 
     12 C12        33.9806   25.4134    0.5858 C.ar      12 UNK        -0.0824 
     13 C13        33.2063   24.9171   -0.4627 C.ar      12 UNK        -0.0762 
     14 C14        32.7877   23.5848   -0.4372 C.ar      12 UNK        -0.0782 
     15 C15        32.7794   25.8468   -1.5884 C.3       12 UNK         0.0230 
     16 S16        31.0566   26.4105   -1.3731 S.3       12 UNK        -0.2608 
     17 C17        31.0371   27.0047    0.3573 C.3       12 UNK        -0.0989 
     18 CA         30.0874   28.1986    0.5946 C.3       5 UNK         0.0716 
     19 N          28.7376   27.9956    0.0520 N.am      5 UNK        -0.4135 
     20 C          27.8509   28.9862   -0.1187 C.2       4 UNK         0.5031 
     21 O          28.0617   30.1507    0.2227 O.2       4 UNK        -0.5229 
     22 CA         26.4954   28.6197   -0.7450 C.3       4 UNK         0.0329 
     23 CB         26.6264   28.4850   -2.2703 C.3       4 UNK        -0.2001 
     24 N          25.8941   27.4019   -0.1924 N.am      4 UNK        -0.4303 
     25 C          25.5406   27.2337    1.0899 C.2       3 UNK         0.5044 
     26 O          25.7284   28.0803    1.9633 O.2       3 UNK        -0.5152 
     27 CA         24.9013   25.8946    1.4843 C.3       3 UNK         0.0319 
     28 CB         24.4626   25.0151    0.2925 C.3       3 UNK        -0.2001 
     29 N          25.8775   25.1929    2.3043 N.am      3 UNK        -0.4354 
     30 C          25.6588   24.2278    3.1995 C.2       2 UNK         0.4964 
     31 O          24.5429   23.7703    3.4513 O.2       2 UNK        -0.5047 
     32 CA         26.9155   23.6741    3.9153 C.3       2 UNK         0.0288 
     33 CB         26.5864   22.5129    4.8724 C.3       2 UNK        -0.2113 
     34 N          27.9677   23.2343    2.9873 N.am      2 UNK        -0.4145 
     35 C          28.7111   24.0250    2.1976 C.2       1 UNK         0.5006 
     36 O          28.6322   25.2567    2.2075 O.2       1 UNK        -0.5103 
     37 C          30.0719   28.5917    2.0864 C.2       5 UNK         0.5055 
     38 O          30.9707   29.3056    2.5294 O.2       5 UNK        -0.5220 
     39 N          29.0402   28.1724    2.8303 N.am      6 UNK        -0.4450 
     40 CA         28.7981   28.5864    4.2136 C.3       6 UNK         0.0367 
     41 CB         27.7269   27.6874    4.8467 C.3       6 UNK        -0.1929 
     42 C          28.4308   30.0741    4.3552 C.2       6 UNK         0.5070 
     43 O          28.6342   30.6360    5.4306 O.2       6 UNK        -0.5237 
     44 N          27.9294   30.6944    3.2792 N.am      7 UNK        -0.4739 
     45 CA         27.7182   32.1378    3.1921 C.3       7 UNK         0.0276 
     46 CB         26.4550   32.4267    2.3635 C.3       7 UNK        -0.1927 
     47 C          28.9466   32.8340    2.5862 C.2       7 UNK         0.5013 
     48 O          29.4145   33.8253    3.1462 O.2       7 UNK        -0.5193 
     49 N          29.4357   32.3167    1.4496 N.am      8 UNK        -0.4253 
     50 CA         30.4860   32.9420    0.6417 C.3       8 UNK         0.0242 
     51 CB         30.4728   32.3347   -0.7709 C.3       8 UNK        -0.2000 
     52 C          31.8962   32.8582    1.2495 C.2       8 UNK         0.4948 
     53 O          32.6306   33.8451    1.1857 O.2       8 UNK        -0.5275 
     54 N          32.2606   31.6912    1.7958 N.am      9 UNK        -0.4246 
     55 CA         33.5993   31.3885    2.3160 C.3       9 UNK         0.0261 
     56 CB         34.1450   30.1551    1.5725 C.3       9 UNK        -0.1959 
     57 C          33.6102   31.1513    3.8366 C.2       9 UNK         0.5033 
     58 O          34.6922   30.9826    4.4006 O.2       9 UNK        -0.5390 
     59 N          32.4267   31.1350    4.4696 N.am      10 UNK        -0.4215 
     60 CA         32.1773   30.8592    5.8912 C.3       10 UNK         0.0240 
     61 CB         32.8208   31.9362    6.7919 C.3       10 UNK        -0.1982 
     62 C          32.5416   29.4198    6.3141 C.2       10 UNK         0.4970 
     63 O          32.8966   29.1968    7.4733 O.2       10 UNK        -0.4916 
     64 N          32.4457   28.4697    5.3747 N.am      11 UNK        -0.4279 
     65 CA         32.6920   27.0366    5.5996 C.3       11 UNK         0.1003 
     66 C          31.6197   26.3556    6.4961 C.2       11 UNK         0.5709 
     67 N          31.9520   25.2212    7.0977 N.am      11 UNK        -0.7358 
     68 O          30.4915   26.8212    6.6362 O.2       11 UNK        -0.4999 
     69 C69        32.8698   26.2874    4.2546 C.3       12 UNK        -0.0954 
     70 S70        34.4131   26.7976    3.4298 S.3       12 UNK        -0.2268 
     71 C71        35.0773   25.1984    2.8533 C.3       12 UNK         0.0203 
     72 H72        26.3317   22.4442   -1.1090 H         1 UNK         0.0888 
     73 H73        27.6341   21.4487   -0.4862 H         1 UNK         0.0888 
     74 H74        26.8357   22.6455    0.5555 H         1 UNK         0.0888 
     75 H75        29.9193   24.4796   -0.5631 H         1 UNK         0.3017 
     76 H76        30.6208   23.8300    1.3743 H         1 UNK         0.0873 
     77 H77        30.3439   21.6406    2.3477 H         1 UNK         0.0745 
     78 H78        28.9333   21.2847    1.3957 H         1 UNK         0.0745 
     79 H79        33.2896   20.7148    0.1182 H         1 UNK         0.0705 
     80 H80        32.6613   20.9253    1.7338 H         1 UNK         0.0705 
     81 H81        34.0425   22.6756    2.5868 H         1 UNK         0.1334 
     82 H82        34.3224   26.4392    0.5604 H         1 UNK         0.1417 
     83 H83        32.2032   23.1964   -1.2602 H         1 UNK         0.1562 
     84 H84        32.8717   25.3344   -2.5471 H         1 UNK         0.0748 
     85 H85        33.4358   26.7169   -1.6411 H         1 UNK         0.0748 
     86 H86        32.0468   27.3089    0.6355 H         1 UNK         0.0940 
     87 H87        30.7870   26.1679    1.0085 H         1 UNK         0.0940 
     88 H88        30.5141   29.0484    0.0587 H         1 UNK         0.0703 
     89 H89        28.5053   27.0628   -0.2554 H         1 UNK         0.3081 
     90 H90        25.8106   29.4446   -0.5364 H         1 UNK         0.0719 
     91 H91        27.2642   27.6455   -2.5513 H         1 UNK         0.0809 
     92 H92        25.6538   28.3400   -2.7410 H         1 UNK         0.0809 
     93 H93        27.0627   29.3855   -2.7054 H         1 UNK         0.0809 
     94 H94        25.7093   26.6514   -0.8423 H         1 UNK         0.2990 
     95 H95        24.0251   26.1232    2.0945 H         1 UNK         0.0690 
     96 H96        25.3044   24.7155   -0.3316 H         1 UNK         0.0788 
     97 H97        23.7447   25.5392   -0.3399 H         1 UNK         0.0788 
     98 H98        23.9726   24.1045    0.6378 H         1 UNK         0.0788 
     99 H99        26.8436   25.4933    2.1910 H         1 UNK         0.2993 
    100 H100       27.3178   24.4888    4.5187 H         1 UNK         0.0949 
    101 H101       26.1770   21.6538    4.3393 H         1 UNK         0.0767 
    102 H102       27.4724   22.1818    5.4148 H         1 UNK         0.0767 
    103 H103       25.8500   22.8162    5.6180 H         1 UNK         0.0767 
    104 H104       28.0839   22.2350    2.9058 H         1 UNK         0.3013 
    105 H105       28.3670   27.5438    2.4140 H         1 UNK         0.3121 
    106 H106       29.7255   28.4412    4.7665 H         1 UNK         0.0774 
    107 H107       27.5558   27.9631    5.8881 H         1 UNK         0.0815 
    108 H108       26.7713   27.7582    4.3284 H         1 UNK         0.0815 
    109 H109       28.0453   26.6463    4.8410 H         1 UNK         0.0815 
    110 H110       27.7880   30.1612    2.4301 H         1 UNK         0.2987 
    111 H111       27.5592   32.5519    4.1906 H         1 UNK         0.0949 
    112 H112       26.5338   32.0455    1.3451 H         1 UNK         0.0806 
    113 H113       25.5737   31.9754    2.8194 H         1 UNK         0.0806 
    114 H114       26.2713   33.4998    2.2961 H         1 UNK         0.0806 
    115 H115       28.9634   31.5127    1.0393 H         1 UNK         0.3010 
    116 H116       30.2389   34.0018    0.5462 H         1 UNK         0.0829 
    117 H117       31.2131   32.8172   -1.4105 H         1 UNK         0.0813 
    118 H118       30.6998   31.2689   -0.7571 H         1 UNK         0.0813 
    119 H119       29.5008   32.4618   -1.2480 H         1 UNK         0.0813 
    120 H120       31.5953   30.9229    1.8346 H         1 UNK         0.3038 
    121 H121       34.2794   32.2215    2.1272 H         1 UNK         0.0769 
    122 H122       35.1533   29.9082    1.9075 H         1 UNK         0.0811 
    123 H123       34.1954   30.3303    0.4979 H         1 UNK         0.0811 
    124 H124       33.5250   29.2741    1.7392 H         1 UNK         0.0811 
    125 H125       31.6021   31.2548    3.8983 H         1 UNK         0.3204 
    126 H126       31.1000   30.9387    6.0267 H         1 UNK         0.0748 
    127 H127       32.4969   31.8242    7.8273 H         1 UNK         0.0771 
    128 H128       33.9094   31.8750    6.7855 H         1 UNK         0.0771 
    129 H129       32.5384   32.9397    6.4734 H         1 UNK         0.0771 
    130 H130       32.1436   28.7309    4.4457 H         1 UNK         0.2980 
    131 H131       33.6322   26.9631    6.1504 H         1 UNK         0.0545 
    132 H132       31.2693   24.7600    7.6780 H         1 UNK         0.3459 
    133 H133       32.8722   24.8233    6.9939 H         1 UNK         0.3459 
    134 H134       32.9008   25.2076    4.4108 H         1 UNK         0.0616 
    135 H135       32.0277   26.4749    3.5858 H         1 UNK         0.0616 
    136 H136       36.1049   25.3479    2.5201 H         1 UNK         0.0634 
    137 H137       35.1219   24.5026    3.6926 H         1 UNK         0.0634 
@<TRIPOS>BOND
     1    1    2 1    
     2    1   72 1    
     3    1   73 1    
     4    1   74 1    
     5    2    3 2    
     6    2    4 am   BACKBONE|DICT|INTERRES
     7    4    5 1    
     8    4   75 1    
     9    5    6 1    
    10    5   35 1    
    11    5   76 1    
    12    6    7 1    
    13    6   77 1    
    14    6   78 1    
    15    7    8 1    
    16    8    9 1    
    17    8   79 1    
    18    8   80 1    
    19    9   10 ar   
    20    9   14 ar   
    21   10   11 ar   
    22   10   81 1    
    23   11   12 ar   
    24   11   71 1    
    25   12   13 ar   
    26   12   82 1    
    27   13   14 ar   
    28   13   15 1    
    29   14   83 1    
    30   15   16 1    
    31   15   84 1    
    32   15   85 1    
    33   16   17 1    
    34   17   18 1    
    35   17   86 1    
    36   17   87 1    
    37   18   19 1    
    38   18   37 1    
    39   18   88 1    
    40   19   20 am   BACKBONE|DICT|INTERRES
    41   19   89 1    
    42   20   21 2    
    43   20   22 1    
    44   22   23 1    
    45   22   24 1    
    46   22   90 1    
    47   23   91 1    
    48   23   92 1    
    49   23   93 1    
    50   24   25 am   BACKBONE|DICT|INTERRES
    51   24   94 1    
    52   25   26 2    
    53   25   27 1    
    54   27   28 1    
    55   27   29 1    
    56   27   95 1    
    57   28   96 1    
    58   28   97 1    
    59   28   98 1    
    60   29   30 am   BACKBONE|DICT|INTERRES
    61   29   99 1    
    62   30   31 2    
    63   30   32 1    
    64   32   33 1    
    65   32   34 1    
    66   32  100 1    
    67   33  101 1    
    68   33  102 1    
    69   33  103 1    
    70   34   35 am   BACKBONE|DICT|INTERRES
    71   34  104 1    
    72   35   36 2    
    73   37   38 2    
    74   37   39 am   BACKBONE|DICT|INTERRES
    75   39   40 1    
    76   39  105 1    
    77   40   41 1    
    78   40   42 1    
    79   40  106 1    
    80   41  107 1    
    81   41  108 1    
    82   41  109 1    
    83   42   43 2    
    84   42   44 am   BACKBONE|DICT|INTERRES
    85   44   45 1    
    86   44  110 1    
    87   45   46 1    
    88   45   47 1    
    89   45  111 1    
    90   46  112 1    
    91   46  113 1    
    92   46  114 1    
    93   47   48 2    
    94   47   49 am   BACKBONE|DICT|INTERRES
    95   49   50 1    
    96   49  115 1    
    97   50   51 1    
    98   50   52 1    
    99   50  116 1    
   100   51  117 1    
   101   51  118 1    
   102   51  119 1    
   103   52   53 2    
   104   52   54 am   BACKBONE|DICT|INTERRES
   105   54   55 1    
   106   54  120 1    
   107   55   56 1    
   108   55   57 1    
   109   55  121 1    
   110   56  122 1    
   111   56  123 1    
   112   56  124 1    
   113   57   58 2    
   114   57   59 am   BACKBONE|DICT|INTERRES
   115   59   60 1    
   116   59  125 1    
   117   60   61 1    
   118   60   62 1    
   119   60  126 1    
   120   61  127 1    
   121   61  128 1    
   122   61  129 1    
   123   62   63 2    
   124   62   64 am   BACKBONE|DICT|INTERRES
   125   64   65 1    
   126   64  130 1    
   127   65   66 1    
   128   65   69 1    
   129   65  131 1    
   130   66   67 am   BACKBONE|DICT|INTERRES
   131   66   68 2    
   132   67  132 1    
   133   67  133 1    
   134   69   70 1    
   135   69  134 1    
   136   69  135 1    
   137   70   71 1    
   138   71  136 1    
   139   71  137 1    
@<TRIPOS>SUBSTRUCTURE
     1 UNK         1 GROUP             0       ****    0 ROOT    
