@<TRIPOS>MOLECULE
3R136
137   139    1
SMALL
USER_CHARGES


@<TRIPOS>ATOM
      1 CA         33.6971   22.1858    0.1882 C.3       0 UNK        -0.1979 
      2 C          32.2364   22.5739    0.3592 C.2       0 UNK         0.4864 
      3 O          31.9149   23.7614    0.3670 O.2       0 UNK        -0.5359 
      4 N          31.3419   21.5812    0.4644 N.am      1 UNK        -0.4318 
      5 CA         29.9023   21.7452    0.7270 C.3       1 UNK         0.0824 
      6 C6         29.2022   20.3906    1.0172 C.3       12 UNK        -0.0944 
      7 S7         30.0753   19.3482    2.2366 S.3       12 UNK        -0.2672 
      8 C8         29.2857   19.8448    3.8010 C.3       12 UNK         0.0333 
      9 C9         29.6769   21.2570    4.2134 C.ar      12 UNK        -0.0807 
     10 C10        31.0014   21.5430    4.5623 C.ar      12 UNK        -0.0894 
     11 C11        31.3723   22.8380    4.9341 C.ar      12 UNK        -0.0804 
     12 C12        30.4086   23.8477    4.9671 C.ar      12 UNK        -0.0824 
     13 C13        29.0807   23.5716    4.6340 C.ar      12 UNK        -0.0762 
     14 C14        28.7182   22.2757    4.2535 C.ar      12 UNK        -0.0782 
     15 C15        28.0434   24.6774    4.7132 C.3       12 UNK         0.0230 
     16 S16        27.9871   25.6499    3.1779 S.3       12 UNK        -0.2608 
     17 C17        26.9622   27.0560    3.7238 C.3       12 UNK        -0.0989 
     18 CA         27.6298   28.4190    3.4083 C.3       5 UNK         0.0716 
     19 N          27.5968   28.6897    1.9650 N.am      5 UNK        -0.4135 
     20 C          27.8013   29.8315    1.2915 C.2       4 UNK         0.5031 
     21 O          28.0010   30.9347    1.8086 O.2       4 UNK        -0.5229 
     22 CA         27.8196   29.7034   -0.2463 C.3       4 UNK         0.0329 
     23 CB         27.9457   31.0688   -0.9473 C.3       4 UNK        -0.2001 
     24 N          28.9140   28.8429   -0.7066 N.am      4 UNK        -0.4303 
     25 C          28.9496   27.5080   -0.6135 C.2       3 UNK         0.5044 
     26 O          28.0187   26.8336   -0.1665 O.2       3 UNK        -0.5152 
     27 CA         30.2725   26.8391   -1.0300 C.3       3 UNK         0.0319 
     28 CB         31.2831   26.9181    0.1284 C.3       3 UNK        -0.2001 
     29 N          30.1099   25.4353   -1.4196 N.am      3 UNK        -0.4354 
     30 C          29.3722   25.0005   -2.4545 C.2       2 UNK         0.4964 
     31 O          28.8111   25.7554   -3.2509 O.2       2 UNK        -0.5047 
     32 CA         29.2459   23.4778   -2.6726 C.3       2 UNK         0.0288 
     33 CB         29.9837   23.0512   -3.9535 C.3       2 UNK        -0.2113 
     34 N          29.7469   22.6753   -1.5555 N.am      2 UNK        -0.4145 
     35 C          29.1338   22.5148   -0.3737 C.2       1 UNK         0.5006 
     36 O          28.0053   22.9450   -0.1328 O.2       1 UNK        -0.5103 
     37 C          27.0061   29.5351    4.2674 C.2       5 UNK         0.5055 
     38 O          25.7835   29.5798    4.4170 O.2       5 UNK        -0.5220 
     39 N          27.8697   30.4137    4.7960 N.am      6 UNK        -0.4450 
     40 CA         27.5894   31.5674    5.6625 C.3       6 UNK         0.0367 
     41 CB         26.9062   31.1280    6.9741 C.3       6 UNK        -0.1929 
     42 C          26.8275   32.7229    4.9822 C.2       6 UNK         0.5070 
     43 O          26.6312   33.7610    5.6153 O.2       6 UNK        -0.5237 
     44 N          26.4395   32.5550    3.7127 N.am      7 UNK        -0.4739 
     45 CA         25.8538   33.5945    2.8707 C.3       7 UNK         0.0276 
     46 CB         24.9804   32.9446    1.7855 C.3       7 UNK        -0.1927 
     47 C          26.9528   34.4626    2.2441 C.2       7 UNK         0.5013 
     48 O          26.7931   35.6823    2.1798 O.2       7 UNK        -0.5193 
     49 N          28.0507   33.8231    1.8170 N.am      8 UNK        -0.4253 
     50 CA         29.2218   34.4884    1.2448 C.3       8 UNK         0.0242 
     51 CB         28.9683   34.8214   -0.2395 C.3       8 UNK        -0.2000 
     52 C          30.5345   33.7054    1.4192 C.2       8 UNK         0.4948 
     53 O          31.5893   34.2900    1.1646 O.2       8 UNK        -0.5275 
     54 N          30.4906   32.4264    1.8225 N.am      9 UNK        -0.4246 
     55 CA         31.6696   31.5648    1.9201 C.3       9 UNK         0.0261 
     56 CB         31.9527   30.9408    0.5386 C.3       9 UNK        -0.1959 
     57 C          31.4891   30.4898    3.0011 C.2       9 UNK         0.5033 
     58 O          30.4170   30.3737    3.5990 O.2       9 UNK        -0.5390 
     59 N          32.5575   29.7198    3.2193 N.am      10 UNK        -0.4215 
     60 CA         32.6704   28.5706    4.1117 C.3       10 UNK         0.0240 
     61 CB         32.6654   29.0249    5.5857 C.3       10 UNK        -0.1982 
     62 C          33.9754   27.8436    3.7470 C.2       10 UNK         0.4970 
     63 O          34.7469   28.3570    2.9298 O.2       10 UNK        -0.4916 
     64 N          34.2103   26.6750    4.3556 N.am      11 UNK        -0.4279 
     65 CA         35.4183   25.8565    4.1323 C.3       11 UNK         0.1003 
     66 C          36.7318   26.4482    4.7256 C.2       11 UNK         0.5709 
     67 N          36.6796   27.4491    5.5970 N.am      11 UNK        -0.7358 
     68 O          37.8200   25.9918    4.3827 O.2       11 UNK        -0.4999 
     69 C69        35.2299   24.3853    4.5896 C.3       12 UNK        -0.0954 
     70 S70        33.7760   23.5904    3.8294 S.3       12 UNK        -0.2268 
     71 C71        32.8101   23.1547    5.3046 C.3       12 UNK         0.0203 
     72 H72        34.3066   22.6797    0.9442 H         1 UNK         0.0888 
     73 H73        33.8467   21.1104    0.2834 H         1 UNK         0.0888 
     74 H74        34.0552   22.4960   -0.7929 H         1 UNK         0.0888 
     75 H75        31.6637   20.6234    0.4575 H         1 UNK         0.3017 
     76 H76        29.8270   22.3636    1.6232 H         1 UNK         0.0873 
     77 H77        28.1795   20.5556    1.3623 H         1 UNK         0.0745 
     78 H78        29.1175   19.8069    0.0984 H         1 UNK         0.0745 
     79 H79        29.5927   19.1503    4.5843 H         1 UNK         0.0705 
     80 H80        28.2030   19.7438    3.7106 H         1 UNK         0.0705 
     81 H81        31.7459   20.7590    4.5303 H         1 UNK         0.1334 
     82 H82        30.6907   24.8516    5.2538 H         1 UNK         0.1417 
     83 H83        27.6910   22.0627    3.9896 H         1 UNK         0.1562 
     84 H84        28.2793   25.3311    5.5546 H         1 UNK         0.0748 
     85 H85        27.0548   24.2610    4.9136 H         1 UNK         0.0748 
     86 H86        26.7721   26.9576    4.7947 H         1 UNK         0.0940 
     87 H87        25.9829   26.9857    3.2461 H         1 UNK         0.0940 
     88 H88        28.6830   28.3460    3.6862 H         1 UNK         0.0703 
     89 H89        27.5057   27.8564    1.3897 H         1 UNK         0.3081 
     90 H90        26.8693   29.2579   -0.5482 H         1 UNK         0.0719 
     91 H91        28.8941   31.5530   -0.7129 H         1 UNK         0.0809 
     92 H92        27.8814   30.9658   -2.0306 H         1 UNK         0.0809 
     93 H93        27.1472   31.7457   -0.6419 H         1 UNK         0.0809 
     94 H94        29.7227   29.3174   -1.0799 H         1 UNK         0.2990 
     95 H95        30.6767   27.3777   -1.8895 H         1 UNK         0.0690 
     96 H96        32.2508   26.5070   -0.1601 H         1 UNK         0.0788 
     97 H97        30.9338   26.3642    1.0015 H         1 UNK         0.0788 
     98 H98        31.4528   27.9468    0.4456 H         1 UNK         0.0788 
     99 H99        30.5560   24.7535   -0.8141 H         1 UNK         0.2993 
    100 H100       28.1830   23.2609   -2.7999 H         1 UNK         0.0949 
    101 H101       31.0550   23.2451   -3.8856 H         1 UNK         0.0767 
    102 H102       29.8454   21.9889   -4.1566 H         1 UNK         0.0767 
    103 H103       29.6085   23.5954   -4.8215 H         1 UNK         0.0767 
    104 H104       30.6730   22.2864   -1.6576 H         1 UNK         0.3013 
    105 H105       28.8410   30.3406    4.4853 H         1 UNK         0.3121 
    106 H106       28.5674   31.9745    5.9236 H         1 UNK         0.0774 
    107 H107       26.8324   31.9616    7.6735 H         1 UNK         0.0815 
    108 H108       25.8936   30.7618    6.8030 H         1 UNK         0.0815 
    109 H109       27.4706   30.3392    7.4711 H         1 UNK         0.0815 
    110 H110       26.6856   31.6845    3.2561 H         1 UNK         0.2987 
    111 H111       25.2180   34.2398    3.4813 H         1 UNK         0.0949 
    112 H112       24.5324   33.7017    1.1405 H         1 UNK         0.0806 
    113 H113       25.5545   32.2710    1.1492 H         1 UNK         0.0806 
    114 H114       24.1652   32.3711    2.2272 H         1 UNK         0.0806 
    115 H115       28.0699   32.8089    1.8801 H         1 UNK         0.3010 
    116 H116       29.3728   35.4280    1.7809 H         1 UNK         0.0829 
    117 H117       28.1199   35.4954   -0.3576 H         1 UNK         0.0813 
    118 H118       29.8324   35.3159   -0.6854 H         1 UNK         0.0813 
    119 H119       28.7667   33.9263   -0.8264 H         1 UNK         0.0813 
    120 H120       29.6153   31.9663    2.0560 H         1 UNK         0.3038 
    121 H121       32.5307   32.1646    2.2232 H         1 UNK         0.0769 
    122 H122       31.1111   30.3406    0.1981 H         1 UNK         0.0811 
    123 H123       32.8331   30.2977    0.5537 H         1 UNK         0.0811 
    124 H124       32.1363   31.7095   -0.2124 H         1 UNK         0.0811 
    125 H125       33.3990   29.8610    2.6705 H         1 UNK         0.3204 
    126 H126       31.8327   27.8953    3.9251 H         1 UNK         0.0748 
    127 H127       32.7521   28.1763    6.2648 H         1 UNK         0.0771 
    128 H128       33.4926   29.7031    5.7991 H         1 UNK         0.0771 
    129 H129       31.7396   29.5402    5.8416 H         1 UNK         0.0771 
    130 H130       33.5399   26.3097    5.0143 H         1 UNK         0.2980 
    131 H131       35.5790   25.8290    3.0525 H         1 UNK         0.0545 
    132 H132       37.5380   27.8238    5.9688 H         1 UNK         0.3459 
    133 H133       35.7944   27.8317    5.8858 H         1 UNK         0.3459 
    134 H134       35.1579   24.3318    5.6773 H         1 UNK         0.0616 
    135 H135       36.1020   23.7881    4.3167 H         1 UNK         0.0616 
    136 H136       32.8328   23.9793    6.0188 H         1 UNK         0.0634 
    137 H137       33.2730   22.3005    5.8010 H         1 UNK         0.0634 
@<TRIPOS>BOND
     1    1    2 1    
     2    1   72 1    
     3    1   73 1    
     4    1   74 1    
     5    2    3 2    
     6    2    4 am   BACKBONE|DICT|INTERRES
     7    4    5 1    
     8    4   75 1    
     9    5    6 1    
    10    5   35 1    
    11    5   76 1    
    12    6    7 1    
    13    6   77 1    
    14    6   78 1    
    15    7    8 1    
    16    8    9 1    
    17    8   79 1    
    18    8   80 1    
    19    9   10 ar   
    20    9   14 ar   
    21   10   11 ar   
    22   10   81 1    
    23   11   12 ar   
    24   11   71 1    
    25   12   13 ar   
    26   12   82 1    
    27   13   14 ar   
    28   13   15 1    
    29   14   83 1    
    30   15   16 1    
    31   15   84 1    
    32   15   85 1    
    33   16   17 1    
    34   17   18 1    
    35   17   86 1    
    36   17   87 1    
    37   18   19 1    
    38   18   37 1    
    39   18   88 1    
    40   19   20 am   BACKBONE|DICT|INTERRES
    41   19   89 1    
    42   20   21 2    
    43   20   22 1    
    44   22   23 1    
    45   22   24 1    
    46   22   90 1    
    47   23   91 1    
    48   23   92 1    
    49   23   93 1    
    50   24   25 am   BACKBONE|DICT|INTERRES
    51   24   94 1    
    52   25   26 2    
    53   25   27 1    
    54   27   28 1    
    55   27   29 1    
    56   27   95 1    
    57   28   96 1    
    58   28   97 1    
    59   28   98 1    
    60   29   30 am   BACKBONE|DICT|INTERRES
    61   29   99 1    
    62   30   31 2    
    63   30   32 1    
    64   32   33 1    
    65   32   34 1    
    66   32  100 1    
    67   33  101 1    
    68   33  102 1    
    69   33  103 1    
    70   34   35 am   BACKBONE|DICT|INTERRES
    71   34  104 1    
    72   35   36 2    
    73   37   38 2    
    74   37   39 am   BACKBONE|DICT|INTERRES
    75   39   40 1    
    76   39  105 1    
    77   40   41 1    
    78   40   42 1    
    79   40  106 1    
    80   41  107 1    
    81   41  108 1    
    82   41  109 1    
    83   42   43 2    
    84   42   44 am   BACKBONE|DICT|INTERRES
    85   44   45 1    
    86   44  110 1    
    87   45   46 1    
    88   45   47 1    
    89   45  111 1    
    90   46  112 1    
    91   46  113 1    
    92   46  114 1    
    93   47   48 2    
    94   47   49 am   BACKBONE|DICT|INTERRES
    95   49   50 1    
    96   49  115 1    
    97   50   51 1    
    98   50   52 1    
    99   50  116 1    
   100   51  117 1    
   101   51  118 1    
   102   51  119 1    
   103   52   53 2    
   104   52   54 am   BACKBONE|DICT|INTERRES
   105   54   55 1    
   106   54  120 1    
   107   55   56 1    
   108   55   57 1    
   109   55  121 1    
   110   56  122 1    
   111   56  123 1    
   112   56  124 1    
   113   57   58 2    
   114   57   59 am   BACKBONE|DICT|INTERRES
   115   59   60 1    
   116   59  125 1    
   117   60   61 1    
   118   60   62 1    
   119   60  126 1    
   120   61  127 1    
   121   61  128 1    
   122   61  129 1    
   123   62   63 2    
   124   62   64 am   BACKBONE|DICT|INTERRES
   125   64   65 1    
   126   64  130 1    
   127   65   66 1    
   128   65   69 1    
   129   65  131 1    
   130   66   67 am   BACKBONE|DICT|INTERRES
   131   66   68 2    
   132   67  132 1    
   133   67  133 1    
   134   69   70 1    
   135   69  134 1    
   136   69  135 1    
   137   70   71 1    
   138   71  136 1    
   139   71  137 1    
@<TRIPOS>SUBSTRUCTURE
     1 UNK         1 GROUP             0       ****    0 ROOT    
