@<TRIPOS>MOLECULE
3R136
137   139    1
SMALL
USER_CHARGES


@<TRIPOS>ATOM
      1 CA         26.1443   26.0291    4.9601 C.3       0 UNK        -0.1979 
      2 C          26.7862   25.4276    3.7194 C.2       0 UNK         0.4864 
      3 O          27.4056   26.1527    2.9400 O.2       0 UNK        -0.5359 
      4 N          26.6572   24.1047    3.5495 N.am      1 UNK        -0.4318 
      5 CA         27.0759   23.3196    2.3802 C.3       1 UNK         0.0824 
      6 C6         28.5654   23.5398    1.9867 C.3       12 UNK        -0.0944 
      7 S7         29.3172   22.0633    1.2202 S.3       12 UNK        -0.2672 
      8 C8         30.8018   21.7954    2.2545 C.3       12 UNK         0.0333 
      9 C9         31.8024   22.9448    2.1681 C.ar      12 UNK        -0.0807 
     10 C10        32.3031   23.5370    3.3341 C.ar      12 UNK        -0.0894 
     11 C11        33.1786   24.6291    3.2676 C.ar      12 UNK        -0.0804 
     12 C12        33.5615   25.1073    2.0112 C.ar      12 UNK        -0.0824 
     13 C13        33.0628   24.5363    0.8415 C.ar      12 UNK        -0.0762 
     14 C14        32.2074   23.4360    0.9234 C.ar      12 UNK        -0.0782 
     15 C15        33.3814   25.1715   -0.5040 C.3       12 UNK         0.0230 
     16 S16        32.6819   26.8551   -0.6362 S.3       12 UNK        -0.2608 
     17 C17        30.9051   26.5540   -0.3308 C.3       12 UNK        -0.0989 
     18 CA         30.1604   27.6960    0.4058 C.3       5 UNK         0.0716 
     19 N          28.7196   27.4634    0.3128 N.am      5 UNK        -0.4135 
     20 C          27.7394   28.3213    0.6167 C.2       4 UNK         0.5031 
     21 O          27.9361   29.4154    1.1476 O.2       4 UNK        -0.5229 
     22 CA         26.3004   27.8596    0.2909 C.3       4 UNK         0.0329 
     23 CB         25.3848   29.0336   -0.1175 C.3       4 UNK        -0.2001 
     24 N          26.2439   26.7612   -0.6930 N.am      4 UNK        -0.4303 
     25 C          26.6226   26.8089   -1.9838 C.2       3 UNK         0.5044 
     26 O          26.9946   27.8412   -2.5421 O.2       3 UNK        -0.5152 
     27 CA         26.6543   25.4913   -2.7860 C.3       3 UNK         0.0319 
     28 CB         28.0119   25.3058   -3.4891 C.3       3 UNK        -0.2001 
     29 N          26.4033   24.3074   -1.9613 N.am      3 UNK        -0.4354 
     30 C          25.2192   23.6965   -1.8309 C.2       2 UNK         0.4964 
     31 O          24.1925   24.0533   -2.4092 O.2       2 UNK        -0.5047 
     32 CA         25.1676   22.4873   -0.8781 C.3       2 UNK         0.0288 
     33 CB         25.4157   21.1835   -1.6543 C.3       2 UNK        -0.2113 
     34 N          26.0983   22.5569    0.2580 N.am      2 UNK        -0.4145 
     35 C          26.1032   23.5181    1.1927 C.2       1 UNK         0.5006 
     36 O          25.3744   24.5122    1.1321 O.2       1 UNK        -0.5103 
     37 C          30.6560   27.9278    1.8541 C.2       5 UNK         0.5055 
     38 O          31.6259   28.6657    2.0359 O.2       5 UNK        -0.5220 
     39 N          29.9750   27.3472    2.8549 N.am      6 UNK        -0.4450 
     40 CA         30.2611   27.5574    4.2787 C.3       6 UNK         0.0367 
     41 CB         30.1626   26.2157    5.0251 C.3       6 UNK        -0.1929 
     42 C          29.3220   28.5964    4.9199 C.2       6 UNK         0.5070 
     43 O          29.5153   28.9293    6.0897 O.2       6 UNK        -0.5237 
     44 N          28.3121   29.0730    4.1785 N.am      7 UNK        -0.4739 
     45 CA         27.3910   30.1232    4.6165 C.3       7 UNK         0.0276 
     46 CB         25.9843   29.8446    4.0628 C.3       7 UNK        -0.1927 
     47 C          27.8820   31.5083    4.1732 C.2       7 UNK         0.5013 
     48 O          27.7766   32.4611    4.9462 O.2       7 UNK        -0.5193 
     49 N          28.4072   31.5970    2.9422 N.am      8 UNK        -0.4253 
     50 CA         28.9216   32.8267    2.3334 C.3       8 UNK         0.0242 
     51 CB         29.1744   32.5748    0.8379 C.3       8 UNK        -0.2000 
     52 C          30.1942   33.3724    3.0057 C.2       8 UNK         0.4948 
     53 O          30.3960   34.5877    3.0125 O.2       8 UNK        -0.5275 
     54 N          31.0234   32.4770    3.5507 N.am      9 UNK        -0.4246 
     55 CA         32.2793   32.7566    4.2404 C.3       9 UNK         0.0261 
     56 CB         33.3675   33.1568    3.2225 C.3       9 UNK        -0.1959 
     57 C          32.6835   31.4929    5.0085 C.2       9 UNK         0.5033 
     58 O          32.0655   30.4424    4.8193 O.2       9 UNK        -0.5390 
     59 N          33.7349   31.5902    5.8329 N.am      10 UNK        -0.4215 
     60 CA         34.3599   30.4608    6.5318 C.3       10 UNK         0.0240 
     61 CB         35.2395   31.0015    7.6748 C.3       10 UNK        -0.1982 
     62 C          35.1481   29.5758    5.5442 C.2       10 UNK         0.4970 
     63 O          36.3784   29.6300    5.5153 O.2       10 UNK        -0.4916 
     64 N          34.3974   28.8330    4.7231 N.am      11 UNK        -0.4279 
     65 CA         34.8194   28.1396    3.5015 C.3       11 UNK         0.1003 
     66 C          35.2317   29.1619    2.4081 C.2       11 UNK         0.5709 
     67 N          34.2689   29.6853    1.6621 N.am      11 UNK        -0.7358 
     68 O          36.4056   29.4769    2.2261 O.2       11 UNK        -0.4999 
     69 C69        35.8851   27.0195    3.7155 C.3       12 UNK        -0.0954 
     70 S70        35.4168   25.5655    4.7304 S.3       12 UNK        -0.2268 
     71 C71        33.6130   25.3388    4.5519 C.3       12 UNK         0.0203 
     72 H72        26.7895   26.7931    5.3920 H         1 UNK         0.0888 
     73 H73        25.1941   26.4924    4.6975 H         1 UNK         0.0888 
     74 H74        25.9581   25.2752    5.7246 H         1 UNK         0.0888 
     75 H75        26.1252   23.5850    4.2334 H         1 UNK         0.3017 
     76 H76        26.9600   22.2837    2.7037 H         1 UNK         0.0873 
     77 H77        29.1466   23.7907    2.8755 H         1 UNK         0.0745 
     78 H78        28.6824   24.3910    1.3140 H         1 UNK         0.0745 
     79 H79        30.4857   21.6296    3.2856 H         1 UNK         0.0705 
     80 H80        31.2945   20.8779    1.9308 H         1 UNK         0.0705 
     81 H81        31.9807   23.1683    4.2983 H         1 UNK         0.1334 
     82 H82        34.2133   25.9573    1.9155 H         1 UNK         0.1417 
     83 H83        31.8112   22.9940    0.0193 H         1 UNK         0.1562 
     84 H84        32.9995   24.5621   -1.3245 H         1 UNK         0.0748 
     85 H85        34.4634   25.2226   -0.6333 H         1 UNK         0.0748 
     86 H86        30.7558   25.6196    0.2085 H         1 UNK         0.0940 
     87 H87        30.4556   26.3982   -1.3126 H         1 UNK         0.0940 
     88 H88        30.3553   28.6235   -0.1370 H         1 UNK         0.0703 
     89 H89        28.4377   26.5785   -0.0769 H         1 UNK         0.3081 
     90 H90        25.8999   27.4480    1.2178 H         1 UNK         0.0719 
     91 H91        24.3756   28.6895   -0.3427 H         1 UNK         0.0809 
     92 H92        25.3035   29.7665    0.6853 H         1 UNK         0.0809 
     93 H93        25.7641   29.5618   -0.9924 H         1 UNK         0.0809 
     94 H94        25.9263   25.8737   -0.3147 H         1 UNK         0.2990 
     95 H95        25.8874   25.5746   -3.5589 H         1 UNK         0.0690 
     96 H96        28.8329   25.2367   -2.7753 H         1 UNK         0.0788 
     97 H97        28.2295   26.1396   -4.1581 H         1 UNK         0.0788 
     98 H98        28.0208   24.4006   -4.0967 H         1 UNK         0.0788 
     99 H99        27.1903   23.9290   -1.4542 H         1 UNK         0.2993 
    100 H100       24.1567   22.4517   -0.4661 H         1 UNK         0.0949 
    101 H101       26.4278   21.1409   -2.0592 H         1 UNK         0.0767 
    102 H102       25.2700   20.3091   -1.0197 H         1 UNK         0.0767 
    103 H103       24.7244   21.0901   -2.4934 H         1 UNK         0.0767 
    104 H104       26.7473   21.7881    0.3581 H         1 UNK         0.3013 
    105 H105       29.1349   26.8078    2.6504 H         1 UNK         0.3121 
    106 H106       31.2811   27.9258    4.3968 H         1 UNK         0.0774 
    107 H107       29.1317   25.9086    5.1862 H         1 UNK         0.0815 
    108 H108       30.6300   26.2876    6.0077 H         1 UNK         0.0815 
    109 H109       30.6611   25.4164    4.4824 H         1 UNK         0.0815 
    110 H110       28.2213   28.7565    3.2214 H         1 UNK         0.2987 
    111 H111       27.3242   30.1274    5.7069 H         1 UNK         0.0949 
    112 H112       25.9729   29.8180    2.9741 H         1 UNK         0.0806 
    113 H113       25.5969   28.8934    4.4242 H         1 UNK         0.0806 
    114 H114       25.2825   30.6184    4.3767 H         1 UNK         0.0806 
    115 H115       28.3863   30.7716    2.3467 H         1 UNK         0.3010 
    116 H116       28.1486   33.5924    2.4261 H         1 UNK         0.0829 
    117 H117       28.2600   32.2721    0.3269 H         1 UNK         0.0813 
    118 H118       29.5394   33.4764    0.3442 H         1 UNK         0.0813 
    119 H119       29.9175   31.7912    0.6824 H         1 UNK         0.0813 
    120 H120       30.7761   31.4933    3.5486 H         1 UNK         0.3038 
    121 H121       32.1206   33.5635    4.9585 H         1 UNK         0.0769 
    122 H122       33.5389   32.3666    2.4908 H         1 UNK         0.0811 
    123 H123       34.3199   33.3593    3.7132 H         1 UNK         0.0811 
    124 H124       33.0941   34.0601    2.6774 H         1 UNK         0.0811 
    125 H125       34.2026   32.4816    5.9165 H         1 UNK         0.3204 
    126 H126       33.5752   29.8456    6.9784 H         1 UNK         0.0748 
    127 H127       36.0305   31.6558    7.3057 H         1 UNK         0.0771 
    128 H128       34.6483   31.5648    8.3970 H         1 UNK         0.0771 
    129 H129       35.7183   30.1848    8.2170 H         1 UNK         0.0771 
    130 H130       33.3974   29.0009    4.7833 H         1 UNK         0.2980 
    131 H131       33.9086   27.6795    3.1284 H         1 UNK         0.0545 
    132 H132       34.5056   30.3412    0.9362 H         1 UNK         0.3459 
    133 H133       33.3003   29.3971    1.7940 H         1 UNK         0.3459 
    134 H134       36.2057   26.6277    2.7490 H         1 UNK         0.0616 
    135 H135       36.7896   27.4413    4.1547 H         1 UNK         0.0616 
    136 H136       33.0948   26.2907    4.6460 H         1 UNK         0.0634 
    137 H137       33.2879   24.7541    5.4135 H         1 UNK         0.0634 
@<TRIPOS>BOND
     1    1    2 1    
     2    1   72 1    
     3    1   73 1    
     4    1   74 1    
     5    2    3 2    
     6    2    4 am   BACKBONE|DICT|INTERRES
     7    4    5 1    
     8    4   75 1    
     9    5    6 1    
    10    5   35 1    
    11    5   76 1    
    12    6    7 1    
    13    6   77 1    
    14    6   78 1    
    15    7    8 1    
    16    8    9 1    
    17    8   79 1    
    18    8   80 1    
    19    9   10 ar   
    20    9   14 ar   
    21   10   11 ar   
    22   10   81 1    
    23   11   12 ar   
    24   11   71 1    
    25   12   13 ar   
    26   12   82 1    
    27   13   14 ar   
    28   13   15 1    
    29   14   83 1    
    30   15   16 1    
    31   15   84 1    
    32   15   85 1    
    33   16   17 1    
    34   17   18 1    
    35   17   86 1    
    36   17   87 1    
    37   18   19 1    
    38   18   37 1    
    39   18   88 1    
    40   19   20 am   BACKBONE|DICT|INTERRES
    41   19   89 1    
    42   20   21 2    
    43   20   22 1    
    44   22   23 1    
    45   22   24 1    
    46   22   90 1    
    47   23   91 1    
    48   23   92 1    
    49   23   93 1    
    50   24   25 am   BACKBONE|DICT|INTERRES
    51   24   94 1    
    52   25   26 2    
    53   25   27 1    
    54   27   28 1    
    55   27   29 1    
    56   27   95 1    
    57   28   96 1    
    58   28   97 1    
    59   28   98 1    
    60   29   30 am   BACKBONE|DICT|INTERRES
    61   29   99 1    
    62   30   31 2    
    63   30   32 1    
    64   32   33 1    
    65   32   34 1    
    66   32  100 1    
    67   33  101 1    
    68   33  102 1    
    69   33  103 1    
    70   34   35 am   BACKBONE|DICT|INTERRES
    71   34  104 1    
    72   35   36 2    
    73   37   38 2    
    74   37   39 am   BACKBONE|DICT|INTERRES
    75   39   40 1    
    76   39  105 1    
    77   40   41 1    
    78   40   42 1    
    79   40  106 1    
    80   41  107 1    
    81   41  108 1    
    82   41  109 1    
    83   42   43 2    
    84   42   44 am   BACKBONE|DICT|INTERRES
    85   44   45 1    
    86   44  110 1    
    87   45   46 1    
    88   45   47 1    
    89   45  111 1    
    90   46  112 1    
    91   46  113 1    
    92   46  114 1    
    93   47   48 2    
    94   47   49 am   BACKBONE|DICT|INTERRES
    95   49   50 1    
    96   49  115 1    
    97   50   51 1    
    98   50   52 1    
    99   50  116 1    
   100   51  117 1    
   101   51  118 1    
   102   51  119 1    
   103   52   53 2    
   104   52   54 am   BACKBONE|DICT|INTERRES
   105   54   55 1    
   106   54  120 1    
   107   55   56 1    
   108   55   57 1    
   109   55  121 1    
   110   56  122 1    
   111   56  123 1    
   112   56  124 1    
   113   57   58 2    
   114   57   59 am   BACKBONE|DICT|INTERRES
   115   59   60 1    
   116   59  125 1    
   117   60   61 1    
   118   60   62 1    
   119   60  126 1    
   120   61  127 1    
   121   61  128 1    
   122   61  129 1    
   123   62   63 2    
   124   62   64 am   BACKBONE|DICT|INTERRES
   125   64   65 1    
   126   64  130 1    
   127   65   66 1    
   128   65   69 1    
   129   65  131 1    
   130   66   67 am   BACKBONE|DICT|INTERRES
   131   66   68 2    
   132   67  132 1    
   133   67  133 1    
   134   69   70 1    
   135   69  134 1    
   136   69  135 1    
   137   70   71 1    
   138   71  136 1    
   139   71  137 1    
@<TRIPOS>SUBSTRUCTURE
     1 UNK         1 GROUP             0       ****    0 ROOT    
