@<TRIPOS>MOLECULE
3R136
137   139    1
SMALL
USER_CHARGES


@<TRIPOS>ATOM
      1 CA         32.9868   22.5077   -4.0129 C.3       0 UNK        -0.1979 
      2 C          32.0313   23.4221   -3.2599 C.2       0 UNK         0.4864 
      3 O          31.6630   24.4781   -3.7767 O.2       0 UNK        -0.5359 
      4 N          31.6356   23.0275   -2.0423 N.am      1 UNK        -0.4318 
      5 CA         30.6712   23.7468   -1.2042 C.3       1 UNK         0.0824 
      6 C6         30.8455   23.3803    0.2915 C.3       12 UNK        -0.0944 
      7 S7         30.3198   24.7316    1.3972 S.3       12 UNK        -0.2672 
      8 C8         29.8930   23.7878    2.8899 C.3       12 UNK         0.0333 
      9 C9         29.7654   24.7054    4.0946 C.ar      12 UNK        -0.0807 
     10 C10        30.9169   25.1774    4.7301 C.ar      12 UNK        -0.0894 
     11 C11        30.8297   26.0272    5.8412 C.ar      12 UNK        -0.0804 
     12 C12        29.5634   26.4077    6.2972 C.ar      12 UNK        -0.0824 
     13 C13        28.4010   25.9459    5.6698 C.ar      12 UNK        -0.0762 
     14 C14        28.5090   25.0840    4.5735 C.ar      12 UNK        -0.0782 
     15 C15        27.0345   26.3769    6.1926 C.3       12 UNK         0.0230 
     16 S16        25.9556   27.0939    4.9077 S.3       12 UNK        -0.2608 
     17 C17        26.9837   28.4427    4.2282 C.3       12 UNK        -0.0989 
     18 CA         27.3935   28.1641    2.7571 C.3       5 UNK         0.0716 
     19 N          26.2524   27.9894    1.8409 N.am      5 UNK        -0.4135 
     20 C          25.2613   28.8555    1.5711 C.2       4 UNK         0.5031 
     21 O          25.2270   30.0046    2.0125 O.2       4 UNK        -0.5229 
     22 CA         24.1411   28.4048    0.6121 C.3       4 UNK         0.0329 
     23 CB         24.3184   29.0747   -0.7610 C.3       4 UNK        -0.2001 
     24 N          24.0754   26.9553    0.4254 N.am      4 UNK        -0.4303 
     25 C          23.6860   26.0705    1.3540 C.2       3 UNK         0.5044 
     26 O          23.1910   26.3896    2.4349 O.2       3 UNK        -0.5152 
     27 CA         23.9029   24.5762    1.0365 C.3       3 UNK         0.0319 
     28 CB         22.5581   23.8862    0.7534 C.3       3 UNK        -0.2001 
     29 N          24.8224   24.3043   -0.0787 N.am      3 UNK        -0.4354 
     30 C          26.1162   24.6508   -0.1297 C.2       2 UNK         0.4964 
     31 O          26.6938   25.2944    0.7513 O.2       2 UNK        -0.5047 
     32 CA         26.8645   24.2768   -1.4125 C.3       2 UNK         0.0288 
     33 CB         26.5288   25.2592   -2.5496 C.3       2 UNK        -0.2113 
     34 N          28.2963   24.3212   -1.1445 N.am      2 UNK        -0.4145 
     35 C          29.2206   23.5265   -1.6913 C.2       1 UNK         0.5006 
     36 O          28.9613   22.6458   -2.5173 O.2       1 UNK        -0.5103 
     37 C          28.4460   29.1807    2.2654 C.2       5 UNK         0.5055 
     38 O          29.6360   28.9617    2.4872 O.2       5 UNK        -0.5220 
     39 N          28.0187   30.2410    1.5650 N.am      6 UNK        -0.4450 
     40 CA         28.8526   31.2882    0.9606 C.3       6 UNK         0.0367 
     41 CB         27.9398   32.3388    0.3093 C.3       6 UNK        -0.1929 
     42 C          29.8932   30.7776   -0.0559 C.2       6 UNK         0.5070 
     43 O          30.8792   31.4700   -0.3069 O.2       6 UNK        -0.5237 
     44 N          29.6831   29.5657   -0.5898 N.am      7 UNK        -0.4739 
     45 CA         30.6331   28.8221   -1.4222 C.3       7 UNK         0.0276 
     46 CB         29.9493   27.5418   -1.9267 C.3       7 UNK        -0.1927 
     47 C          31.9590   28.4853   -0.7071 C.2       7 UNK         0.5013 
     48 O          32.9752   28.3196   -1.3827 O.2       7 UNK        -0.5193 
     49 N          31.9377   28.4221    0.6306 N.am      8 UNK        -0.4253 
     50 CA         33.1113   28.3007    1.4911 C.3       8 UNK         0.0242 
     51 CB         33.3262   26.8261    1.8820 C.3       8 UNK        -0.2000 
     52 C          32.9020   29.2198    2.7020 C.2       8 UNK         0.4948 
     53 O          32.9094   28.7447    3.8375 O.2       8 UNK        -0.5275 
     54 N          32.6692   30.5139    2.4251 N.am      9 UNK        -0.4246 
     55 CA         32.2847   31.5662    3.3746 C.3       9 UNK         0.0261 
     56 CB         32.3545   32.9336    2.6729 C.3       9 UNK        -0.1959 
     57 C          33.1170   31.5758    4.6702 C.2       9 UNK         0.5033 
     58 O          34.3040   31.9081    4.6335 O.2       9 UNK        -0.5390 
     59 N          32.4715   31.1701    5.7734 N.am      10 UNK        -0.4215 
     60 CA         33.0061   31.0187    7.1338 C.3       10 UNK         0.0240 
     61 CB         33.4633   32.3810    7.6988 C.3       10 UNK        -0.1982 
     62 C          34.0921   29.9327    7.2984 C.2       10 UNK         0.4970 
     63 O          34.6636   29.8364    8.3857 O.2       10 UNK        -0.4916 
     64 N          34.3464   29.1247    6.2574 N.am      11 UNK        -0.4279 
     65 CA         35.3307   28.0298    6.2197 C.3       11 UNK         0.1003 
     66 C          36.8050   28.4708    6.4850 C.2       11 UNK         0.5709 
     67 N          37.1653   29.7235    6.2282 N.am      11 UNK        -0.7358 
     68 O          37.6454   27.6703    6.8896 O.2       11 UNK        -0.4999 
     69 C69        34.8596   26.7995    7.0542 C.3       12 UNK        -0.0954 
     70 S70        33.6481   25.7862    6.1414 S.3       12 UNK        -0.2268 
     71 C71        32.0608   26.5888    6.5597 C.3       12 UNK         0.0203 
     72 H72        33.9100   23.0383   -4.2443 H         1 UNK         0.0888 
     73 H73        33.2421   21.6194   -3.4353 H         1 UNK         0.0888 
     74 H74        32.5349   22.1842   -4.9502 H         1 UNK         0.0888 
     75 H75        31.9439   22.1334   -1.6883 H         1 UNK         0.3017 
     76 H76        30.8935   24.8094   -1.3191 H         1 UNK         0.0873 
     77 H77        31.8976   23.1946    0.5151 H         1 UNK         0.0745 
     78 H78        30.3187   22.4563    0.5398 H         1 UNK         0.0745 
     79 H79        30.6651   23.0416    3.0846 H         1 UNK         0.0705 
     80 H80        28.9650   23.2403    2.7171 H         1 UNK         0.0705 
     81 H81        31.8781   24.8829    4.3351 H         1 UNK         0.1334 
     82 H82        29.4843   27.0728    7.1465 H         1 UNK         0.1417 
     83 H83        27.6143   24.7259    4.0818 H         1 UNK         0.1562 
     84 H84        27.1391   27.1046    6.9989 H         1 UNK         0.0748 
     85 H85        26.5346   25.5098    6.6260 H         1 UNK         0.0748 
     86 H86        27.8684   28.5707    4.8550 H         1 UNK         0.0940 
     87 H87        26.4267   29.3774    4.3084 H         1 UNK         0.0940 
     88 H88        27.9054   27.2004    2.7412 H         1 UNK         0.0703 
     89 H89        26.2171   27.0724    1.4046 H         1 UNK         0.3081 
     90 H90        23.1928   28.7375    1.0395 H         1 UNK         0.0719 
     91 H91        25.2503   28.7739   -1.2418 H         1 UNK         0.0809 
     92 H92        23.4972   28.8256   -1.4334 H         1 UNK         0.0809 
     93 H93        24.3369   30.1616   -0.6667 H         1 UNK         0.0809 
     94 H94        24.4443   26.5927   -0.4409 H         1 UNK         0.2990 
     95 H95        24.3364   24.1252    1.9317 H         1 UNK         0.0690 
     96 H96        22.6811   22.8101    0.6295 H         1 UNK         0.0788 
     97 H97        22.0856   24.2782   -0.1482 H         1 UNK         0.0788 
     98 H98        21.8597   24.0359    1.5783 H         1 UNK         0.0788 
     99 H99        24.4298   23.7999   -0.8613 H         1 UNK         0.2993 
    100 H100       26.5723   23.2634   -1.6974 H         1 UNK         0.0949 
    101 H101       27.0686   25.0049   -3.4622 H         1 UNK         0.0767 
    102 H102       25.4651   25.2400   -2.7899 H         1 UNK         0.0767 
    103 H103       26.7884   26.2854   -2.2856 H         1 UNK         0.0767 
    104 H104       28.5580   24.9277   -0.3751 H         1 UNK         0.3013 
    105 H105       27.0110   30.3586    1.4956 H         1 UNK         0.3121 
    106 H106       29.4058   31.7675    1.7703 H         1 UNK         0.0774 
    107 H107       28.5251   33.1513   -0.1239 H         1 UNK         0.0815 
    108 H108       27.3368   31.9077   -0.4909 H         1 UNK         0.0815 
    109 H109       27.2621   32.7835    1.0384 H         1 UNK         0.0815 
    110 H110       28.8382   29.0815   -0.3258 H         1 UNK         0.2987 
    111 H111       30.8804   29.4462   -2.2836 H         1 UNK         0.0949 
    112 H112       30.6238   26.9598   -2.5568 H         1 UNK         0.0806 
    113 H113       29.6381   26.9051   -1.0986 H         1 UNK         0.0806 
    114 H114       29.0676   27.7699   -2.5258 H         1 UNK         0.0806 
    115 H115       31.0617   28.5869    1.1214 H         1 UNK         0.3010 
    116 H116       34.0016   28.6566    0.9683 H         1 UNK         0.0829 
    117 H117       33.4410   26.1916    1.0032 H         1 UNK         0.0813 
    118 H118       34.2226   26.7102    2.4921 H         1 UNK         0.0813 
    119 H119       32.4870   26.4449    2.4641 H         1 UNK         0.0813 
    120 H120       32.6719   30.7875    1.4522 H         1 UNK         0.3038 
    121 H121       31.2406   31.3810    3.6347 H         1 UNK         0.0769 
    122 H122       32.0724   33.7375    3.3542 H         1 UNK         0.0811 
    123 H123       31.6778   32.9833    1.8204 H         1 UNK         0.0811 
    124 H124       33.3615   33.1501    2.3139 H         1 UNK         0.0811 
    125 H125       31.5119   30.8721    5.6618 H         1 UNK         0.3204 
    126 H126       32.1656   30.6810    7.7419 H         1 UNK         0.0748 
    127 H127       33.7120   32.3043    8.7581 H         1 UNK         0.0771 
    128 H128       34.3493   32.7563    7.1859 H         1 UNK         0.0771 
    129 H129       32.6790   33.1324    7.6073 H         1 UNK         0.0771 
    130 H130       33.8038   29.2309    5.4031 H         1 UNK         0.2980 
    131 H131       35.3615   27.7189    5.1747 H         1 UNK         0.0545 
    132 H132       36.4887   30.3858    5.8801 H         1 UNK         0.3459 
    133 H133       38.1189   30.0073    6.3873 H         1 UNK         0.3459 
    134 H134       35.6896   26.1293    7.2809 H         1 UNK         0.0616 
    135 H135       34.4490   27.0977    8.0197 H         1 UNK         0.0616 
    136 H136       32.1244   27.6492    6.3204 H         1 UNK         0.0634 
    137 H137       31.9159   26.5172    7.6385 H         1 UNK         0.0634 
@<TRIPOS>BOND
     1    1    2 1    
     2    1   72 1    
     3    1   73 1    
     4    1   74 1    
     5    2    3 2    
     6    2    4 am   BACKBONE|DICT|INTERRES
     7    4    5 1    
     8    4   75 1    
     9    5    6 1    
    10    5   35 1    
    11    5   76 1    
    12    6    7 1    
    13    6   77 1    
    14    6   78 1    
    15    7    8 1    
    16    8    9 1    
    17    8   79 1    
    18    8   80 1    
    19    9   10 ar   
    20    9   14 ar   
    21   10   11 ar   
    22   10   81 1    
    23   11   12 ar   
    24   11   71 1    
    25   12   13 ar   
    26   12   82 1    
    27   13   14 ar   
    28   13   15 1    
    29   14   83 1    
    30   15   16 1    
    31   15   84 1    
    32   15   85 1    
    33   16   17 1    
    34   17   18 1    
    35   17   86 1    
    36   17   87 1    
    37   18   19 1    
    38   18   37 1    
    39   18   88 1    
    40   19   20 am   BACKBONE|DICT|INTERRES
    41   19   89 1    
    42   20   21 2    
    43   20   22 1    
    44   22   23 1    
    45   22   24 1    
    46   22   90 1    
    47   23   91 1    
    48   23   92 1    
    49   23   93 1    
    50   24   25 am   BACKBONE|DICT|INTERRES
    51   24   94 1    
    52   25   26 2    
    53   25   27 1    
    54   27   28 1    
    55   27   29 1    
    56   27   95 1    
    57   28   96 1    
    58   28   97 1    
    59   28   98 1    
    60   29   30 am   BACKBONE|DICT|INTERRES
    61   29   99 1    
    62   30   31 2    
    63   30   32 1    
    64   32   33 1    
    65   32   34 1    
    66   32  100 1    
    67   33  101 1    
    68   33  102 1    
    69   33  103 1    
    70   34   35 am   BACKBONE|DICT|INTERRES
    71   34  104 1    
    72   35   36 2    
    73   37   38 2    
    74   37   39 am   BACKBONE|DICT|INTERRES
    75   39   40 1    
    76   39  105 1    
    77   40   41 1    
    78   40   42 1    
    79   40  106 1    
    80   41  107 1    
    81   41  108 1    
    82   41  109 1    
    83   42   43 2    
    84   42   44 am   BACKBONE|DICT|INTERRES
    85   44   45 1    
    86   44  110 1    
    87   45   46 1    
    88   45   47 1    
    89   45  111 1    
    90   46  112 1    
    91   46  113 1    
    92   46  114 1    
    93   47   48 2    
    94   47   49 am   BACKBONE|DICT|INTERRES
    95   49   50 1    
    96   49  115 1    
    97   50   51 1    
    98   50   52 1    
    99   50  116 1    
   100   51  117 1    
   101   51  118 1    
   102   51  119 1    
   103   52   53 2    
   104   52   54 am   BACKBONE|DICT|INTERRES
   105   54   55 1    
   106   54  120 1    
   107   55   56 1    
   108   55   57 1    
   109   55  121 1    
   110   56  122 1    
   111   56  123 1    
   112   56  124 1    
   113   57   58 2    
   114   57   59 am   BACKBONE|DICT|INTERRES
   115   59   60 1    
   116   59  125 1    
   117   60   61 1    
   118   60   62 1    
   119   60  126 1    
   120   61  127 1    
   121   61  128 1    
   122   61  129 1    
   123   62   63 2    
   124   62   64 am   BACKBONE|DICT|INTERRES
   125   64   65 1    
   126   64  130 1    
   127   65   66 1    
   128   65   69 1    
   129   65  131 1    
   130   66   67 am   BACKBONE|DICT|INTERRES
   131   66   68 2    
   132   67  132 1    
   133   67  133 1    
   134   69   70 1    
   135   69  134 1    
   136   69  135 1    
   137   70   71 1    
   138   71  136 1    
   139   71  137 1    
@<TRIPOS>SUBSTRUCTURE
     1 UNK         1 GROUP             0       ****    0 ROOT    
