@<TRIPOS>MOLECULE
3R136
137   139    1
SMALL
USER_CHARGES


@<TRIPOS>ATOM
      1 CA         30.7799   24.2389   -4.4078 C.3       0 UNK        -0.1979 
      2 C          30.4049   24.8450   -3.0640 C.2       0 UNK         0.4864 
      3 O          30.6400   26.0318   -2.8426 O.2       0 UNK        -0.5359 
      4 N          29.8176   24.0395   -2.1683 N.am      1 UNK        -0.4318 
      5 CA         29.4336   24.4259   -0.8026 C.3       1 UNK         0.0824 
      6 C6         29.1783   23.1916    0.0996 C.3       12 UNK        -0.0944 
      7 S7         30.5112   21.9422    0.0833 S.3       12 UNK        -0.2672 
      8 C8         31.9832   22.8929    0.6071 C.3       12 UNK         0.0333 
      9 C9         31.9157   23.5156    2.0030 C.ar      12 UNK        -0.0807 
     10 C10        32.7653   24.5870    2.2988 C.ar      12 UNK        -0.0894 
     11 C11        32.7773   25.1649    3.5716 C.ar      12 UNK        -0.0804 
     12 C12        31.9170   24.6717    4.5563 C.ar      12 UNK        -0.0824 
     13 C13        31.0587   23.6032    4.2785 C.ar      12 UNK        -0.0762 
     14 C14        31.0734   23.0217    3.0081 C.ar      12 UNK        -0.0782 
     15 C15        30.1315   23.0562    5.3567 C.3       12 UNK         0.0230 
     16 S16        28.3824   23.4640    5.0408 S.3       12 UNK        -0.2608 
     17 C17        28.4186   25.2863    5.0781 C.3       12 UNK        -0.0989 
     18 CA         28.0860   25.8881    3.6839 C.3       5 UNK         0.0716 
     19 N          26.6837   25.7368    3.2672 N.am      5 UNK        -0.4135 
     20 C          25.6007   26.2126    3.9043 C.2       4 UNK         0.5031 
     21 O          25.6312   26.7325    5.0204 O.2       4 UNK        -0.5229 
     22 CA         24.2412   26.1423    3.1827 C.3       4 UNK         0.0329 
     23 CB         23.6588   27.5551    2.9967 C.3       4 UNK        -0.2001 
     24 N          24.2832   25.4950    1.8723 N.am      4 UNK        -0.4303 
     25 C          24.2458   24.1804    1.6373 C.2       3 UNK         0.5044 
     26 O          24.2357   23.3298    2.5267 O.2       3 UNK        -0.5152 
     27 CA         24.2162   23.7319    0.1622 C.3       3 UNK         0.0319 
     28 CB         22.7720   23.7108   -0.3749 C.3       3 UNK        -0.2001 
     29 N          25.1102   24.4801   -0.7379 N.am      3 UNK        -0.4354 
     30 C          25.0854   25.7769   -1.0906 C.2       2 UNK         0.4964 
     31 O          24.2304   26.5746   -0.7029 O.2       2 UNK        -0.5047 
     32 CA         26.2283   26.2671   -2.0046 C.3       2 UNK         0.0288 
     33 CB         26.5063   27.7784   -1.8489 C.3       2 UNK        -0.2113 
     34 N          27.4683   25.4930   -1.8488 N.am      2 UNK        -0.4145 
     35 C          28.2180   25.3740   -0.7402 C.2       1 UNK         0.5006 
     36 O          27.9608   25.9385    0.3254 O.2       1 UNK        -0.5103 
     37 C          28.4888   27.3678    3.5530 C.2       5 UNK         0.5055 
     38 O          28.6964   28.0533    4.5553 O.2       5 UNK        -0.5220 
     39 N          28.5456   27.8342    2.3016 N.am      6 UNK        -0.4450 
     40 CA         28.8426   29.2122    1.9274 C.3       6 UNK         0.0367 
     41 CB         27.5285   30.0110    1.8189 C.3       6 UNK        -0.1929 
     42 C          29.6827   29.2398    0.6420 C.2       6 UNK         0.5070 
     43 O          29.3711   29.9961   -0.2788 O.2       6 UNK        -0.5237 
     44 N          30.7458   28.4209    0.5979 N.am      7 UNK        -0.4739 
     45 CA         31.7379   28.4300   -0.4882 C.3       7 UNK         0.0276 
     46 CB         32.6471   27.1948   -0.3804 C.3       7 UNK        -0.1927 
     47 C          32.5981   29.7074   -0.4904 C.2       7 UNK         0.5013 
     48 O          33.0490   30.1420   -1.5508 O.2       7 UNK        -0.5193 
     49 N          32.7980   30.2797    0.7000 N.am      8 UNK        -0.4253 
     50 CA         33.4941   31.5272    0.9749 C.3       8 UNK         0.0242 
     51 CB         35.0080   31.2636    1.0779 C.3       8 UNK        -0.2000 
     52 C          32.9370   32.0776    2.2923 C.2       8 UNK         0.4948 
     53 O          32.2906   31.3377    3.0397 O.2       8 UNK        -0.5275 
     54 N          33.2366   33.3492    2.5875 N.am      9 UNK        -0.4246 
     55 CA         32.8253   34.0419    3.8177 C.3       9 UNK         0.0261 
     56 CB         33.2211   35.5245    3.7174 C.3       9 UNK        -0.1959 
     57 C          33.3809   33.4229    5.1173 C.2       9 UNK         0.5033 
     58 O          32.8159   33.6579    6.1861 O.2       9 UNK        -0.5390 
     59 N          34.4663   32.6456    5.0047 N.am      10 UNK        -0.4215 
     60 CA         35.0781   31.8866    6.0947 C.3       10 UNK         0.0240 
     61 CB         36.5081   31.4962    5.6838 C.3       10 UNK        -0.1982 
     62 C          34.2813   30.6334    6.5075 C.2       10 UNK         0.4970 
     63 O          34.5112   30.1337    7.6100 O.2       10 UNK        -0.4916 
     64 N          33.3965   30.1253    5.6365 N.am      11 UNK        -0.4279 
     65 CA         32.5769   28.9334    5.9032 C.3       11 UNK         0.1003 
     66 C          31.4752   29.1951    6.9664 C.2       11 UNK         0.5709 
     67 N          31.1478   28.1975    7.7775 N.am      11 UNK        -0.7358 
     68 O          30.8987   30.2784    7.0467 O.2       11 UNK        -0.4999 
     69 C69        31.9606   28.3421    4.6095 C.3       12 UNK        -0.0954 
     70 S70        33.1975   27.9157    3.3419 S.3       12 UNK        -0.2268 
     71 C71        33.7655   26.2779    3.8958 C.3       12 UNK         0.0203 
     72 H72        30.5132   23.1839   -4.4688 H         1 UNK         0.0888 
     73 H73        30.2688   24.7659   -5.2130 H         1 UNK         0.0888 
     74 H74        31.8538   24.3268   -4.5707 H         1 UNK         0.0888 
     75 H75        29.6694   23.0668   -2.3993 H         1 UNK         0.3017 
     76 H76        30.2599   24.9881   -0.3702 H         1 UNK         0.0873 
     77 H77        28.2616   22.6827   -0.2049 H         1 UNK         0.0745 
     78 H78        29.0143   23.5027    1.1329 H         1 UNK         0.0745 
     79 H79        32.8412   22.2200    0.5821 H         1 UNK         0.0705 
     80 H80        32.1855   23.6628   -0.1383 H         1 UNK         0.0705 
     81 H81        33.4419   24.9594    1.5419 H         1 UNK         0.1334 
     82 H82        31.9282   25.1094    5.5449 H         1 UNK         0.1417 
     83 H83        30.4222   22.1812    2.8135 H         1 UNK         0.1562 
     84 H84        30.4144   23.4328    6.3410 H         1 UNK         0.0748 
     85 H85        30.2369   21.9715    5.4054 H         1 UNK         0.0748 
     86 H86        29.4037   25.6146    5.4115 H         1 UNK         0.0940 
     87 H87        27.7321   25.6379    5.8480 H         1 UNK         0.0940 
     88 H88        28.6880   25.3508    2.9485 H         1 UNK         0.0703 
     89 H89        26.5493   25.3599    2.3400 H         1 UNK         0.3081 
     90 H90        23.5649   25.5772    3.8276 H         1 UNK         0.0719 
     91 H91        23.5474   28.0662    3.9539 H         1 UNK         0.0809 
     92 H92        24.3008   28.1746    2.3686 H         1 UNK         0.0809 
     93 H93        22.6716   27.5201    2.5354 H         1 UNK         0.0809 
     94 H94        24.2700   26.1042    1.0564 H         1 UNK         0.2990 
     95 H95        24.5827   22.7040    0.1473 H         1 UNK         0.0690 
     96 H96        22.7326   23.3164   -1.3903 H         1 UNK         0.0788 
     97 H97        22.3236   24.7048   -0.3837 H         1 UNK         0.0788 
     98 H98        22.1365   23.0758    0.2439 H         1 UNK         0.0788 
     99 H99        25.8704   23.9325   -1.1149 H         1 UNK         0.2993 
    100 H100       25.8859   26.0986   -3.0267 H         1 UNK         0.0949 
    101 H101       26.7769   28.0378   -0.8254 H         1 UNK         0.0767 
    102 H102       27.3193   28.1016   -2.4992 H         1 UNK         0.0767 
    103 H103       25.6278   28.3691   -2.1116 H         1 UNK         0.0767 
    104 H104       27.7721   24.9837   -2.6670 H         1 UNK         0.3013 
    105 H105       28.3507   27.1935    1.5300 H         1 UNK         0.3121 
    106 H106       29.4584   29.6792    2.6989 H         1 UNK         0.0774 
    107 H107       26.8712   29.6020    1.0514 H         1 UNK         0.0815 
    108 H108       26.9837   30.0058    2.7631 H         1 UNK         0.0815 
    109 H109       27.7230   31.0536    1.5646 H         1 UNK         0.0815 
    110 H110       30.9386   27.8268    1.3922 H         1 UNK         0.2987 
    111 H111       31.2027   28.3827   -1.4395 H         1 UNK         0.0949 
    112 H112       32.0736   26.2717   -0.3617 H         1 UNK         0.0806 
    113 H113       33.3168   27.1360   -1.2394 H         1 UNK         0.0806 
    114 H114       33.2707   27.2232    0.5123 H         1 UNK         0.0806 
    115 H115       32.3591   29.8762    1.5195 H         1 UNK         0.3010 
    116 H116       33.2869   32.2439    0.1774 H         1 UNK         0.0829 
    117 H117       35.2392   30.5589    1.8782 H         1 UNK         0.0813 
    118 H118       35.5593   32.1829    1.2780 H         1 UNK         0.0813 
    119 H119       35.4013   30.8505    0.1488 H         1 UNK         0.0813 
    120 H120       33.7767   33.8888    1.9254 H         1 UNK         0.3038 
    121 H121       31.7365   33.9823    3.8782 H         1 UNK         0.0769 
    122 H122       32.7542   36.0040    2.8569 H         1 UNK         0.0811 
    123 H123       34.3011   35.6494    3.6289 H         1 UNK         0.0811 
    124 H124       32.9016   36.0749    4.6037 H         1 UNK         0.0811 
    125 H125       34.8678   32.5267    4.0868 H         1 UNK         0.3204 
    126 H126       35.1399   32.5358    6.9708 H         1 UNK         0.0748 
    127 H127       36.5139   30.8486    4.8059 H         1 UNK         0.0771 
    128 H128       37.1112   32.3760    5.4580 H         1 UNK         0.0771 
    129 H129       37.0129   30.9586    6.4879 H         1 UNK         0.0771 
    130 H130       33.2044   30.6051    4.7648 H         1 UNK         0.2980 
    131 H131       33.2474   28.1777    6.3165 H         1 UNK         0.0545 
    132 H132       31.6143   27.3062    7.7278 H         1 UNK         0.3459 
    133 H133       30.4253   28.3463    8.4641 H         1 UNK         0.3459 
    134 H134       31.2671   29.0582    4.1675 H         1 UNK         0.0616 
    135 H135       31.3722   27.4524    4.8344 H         1 UNK         0.0616 
    136 H136       34.7177   26.0639    3.4084 H         1 UNK         0.0634 
    137 H137       33.9783   26.3054    4.9652 H         1 UNK         0.0634 
@<TRIPOS>BOND
     1    1    2 1    
     2    1   72 1    
     3    1   73 1    
     4    1   74 1    
     5    2    3 2    
     6    2    4 am   BACKBONE|DICT|INTERRES
     7    4    5 1    
     8    4   75 1    
     9    5    6 1    
    10    5   35 1    
    11    5   76 1    
    12    6    7 1    
    13    6   77 1    
    14    6   78 1    
    15    7    8 1    
    16    8    9 1    
    17    8   79 1    
    18    8   80 1    
    19    9   10 ar   
    20    9   14 ar   
    21   10   11 ar   
    22   10   81 1    
    23   11   12 ar   
    24   11   71 1    
    25   12   13 ar   
    26   12   82 1    
    27   13   14 ar   
    28   13   15 1    
    29   14   83 1    
    30   15   16 1    
    31   15   84 1    
    32   15   85 1    
    33   16   17 1    
    34   17   18 1    
    35   17   86 1    
    36   17   87 1    
    37   18   19 1    
    38   18   37 1    
    39   18   88 1    
    40   19   20 am   BACKBONE|DICT|INTERRES
    41   19   89 1    
    42   20   21 2    
    43   20   22 1    
    44   22   23 1    
    45   22   24 1    
    46   22   90 1    
    47   23   91 1    
    48   23   92 1    
    49   23   93 1    
    50   24   25 am   BACKBONE|DICT|INTERRES
    51   24   94 1    
    52   25   26 2    
    53   25   27 1    
    54   27   28 1    
    55   27   29 1    
    56   27   95 1    
    57   28   96 1    
    58   28   97 1    
    59   28   98 1    
    60   29   30 am   BACKBONE|DICT|INTERRES
    61   29   99 1    
    62   30   31 2    
    63   30   32 1    
    64   32   33 1    
    65   32   34 1    
    66   32  100 1    
    67   33  101 1    
    68   33  102 1    
    69   33  103 1    
    70   34   35 am   BACKBONE|DICT|INTERRES
    71   34  104 1    
    72   35   36 2    
    73   37   38 2    
    74   37   39 am   BACKBONE|DICT|INTERRES
    75   39   40 1    
    76   39  105 1    
    77   40   41 1    
    78   40   42 1    
    79   40  106 1    
    80   41  107 1    
    81   41  108 1    
    82   41  109 1    
    83   42   43 2    
    84   42   44 am   BACKBONE|DICT|INTERRES
    85   44   45 1    
    86   44  110 1    
    87   45   46 1    
    88   45   47 1    
    89   45  111 1    
    90   46  112 1    
    91   46  113 1    
    92   46  114 1    
    93   47   48 2    
    94   47   49 am   BACKBONE|DICT|INTERRES
    95   49   50 1    
    96   49  115 1    
    97   50   51 1    
    98   50   52 1    
    99   50  116 1    
   100   51  117 1    
   101   51  118 1    
   102   51  119 1    
   103   52   53 2    
   104   52   54 am   BACKBONE|DICT|INTERRES
   105   54   55 1    
   106   54  120 1    
   107   55   56 1    
   108   55   57 1    
   109   55  121 1    
   110   56  122 1    
   111   56  123 1    
   112   56  124 1    
   113   57   58 2    
   114   57   59 am   BACKBONE|DICT|INTERRES
   115   59   60 1    
   116   59  125 1    
   117   60   61 1    
   118   60   62 1    
   119   60  126 1    
   120   61  127 1    
   121   61  128 1    
   122   61  129 1    
   123   62   63 2    
   124   62   64 am   BACKBONE|DICT|INTERRES
   125   64   65 1    
   126   64  130 1    
   127   65   66 1    
   128   65   69 1    
   129   65  131 1    
   130   66   67 am   BACKBONE|DICT|INTERRES
   131   66   68 2    
   132   67  132 1    
   133   67  133 1    
   134   69   70 1    
   135   69  134 1    
   136   69  135 1    
   137   70   71 1    
   138   71  136 1    
   139   71  137 1    
@<TRIPOS>SUBSTRUCTURE
     1 UNK         1 GROUP             0       ****    0 ROOT    
