@<TRIPOS>MOLECULE
3R136
137   139    1
SMALL
USER_CHARGES


@<TRIPOS>ATOM
      1 CA         26.3822   23.3537   -2.3894 C.3       0 UNK        -0.1979 
      2 C          27.0477   23.9128   -1.1421 C.2       0 UNK         0.4864 
      3 O          27.1308   25.1324   -0.9884 O.2       0 UNK        -0.5359 
      4 N          27.5186   23.0378   -0.2451 N.am      1 UNK        -0.4318 
      5 CA         28.2097   23.3808    1.0044 C.3       1 UNK         0.0824 
      6 C6         29.1061   22.2178    1.5076 C.3       12 UNK        -0.0944 
      7 S7         30.2796   21.6144    0.2494 S.3       12 UNK        -0.2672 
      8 C8         31.8485   21.5746    1.1792 C.3       12 UNK         0.0333 
      9 C9         32.5694   22.9186    1.2452 C.ar      12 UNK        -0.0807 
     10 C10        33.2168   23.3028    2.4211 C.ar      12 UNK        -0.0894 
     11 C11        33.9897   24.4669    2.4719 C.ar      12 UNK        -0.0804 
     12 C12        34.0835   25.2712    1.3245 C.ar      12 UNK        -0.0824 
     13 C13        33.4278   24.9139    0.1369 C.ar      12 UNK        -0.0762 
     14 C14        32.6828   23.7273    0.1119 C.ar      12 UNK        -0.0782 
     15 C15        33.6143   25.7784   -1.1185 C.3       12 UNK         0.0230 
     16 S16        32.4058   25.4701   -2.4666 S.3       12 UNK        -0.2608 
     17 C17        31.3242   26.9405   -2.4501 C.3       12 UNK        -0.0989 
     18 CA         30.1954   26.8758   -1.3897 C.3       5 UNK         0.0716 
     19 N          30.7694   26.9329   -0.0472 N.am      5 UNK        -0.4135 
     20 C          30.1253   27.0868    1.1123 C.2       4 UNK         0.5031 
     21 O          28.8981   27.0159    1.2509 O.2       4 UNK        -0.5229 
     22 CA         31.0290   27.4955    2.2884 C.3       4 UNK         0.0329 
     23 CB         31.7111   28.8391    1.9574 C.3       4 UNK        -0.2001 
     24 N          30.2502   27.6310    3.5203 N.am      4 UNK        -0.4303 
     25 C          29.7308   26.5846    4.1744 C.2       3 UNK         0.5044 
     26 O          30.1490   25.4309    4.0762 O.2       3 UNK        -0.5152 
     27 CA         28.4051   26.8355    4.8932 C.3       3 UNK         0.0319 
     28 CB         28.2506   28.2351    5.5195 C.3       3 UNK        -0.2001 
     29 N          27.4158   26.6124    3.8469 N.am      3 UNK        -0.4354 
     30 C          26.1877   26.1146    4.0092 C.2       2 UNK         0.4964 
     31 O          25.6119   26.0288    5.0943 O.2       2 UNK        -0.5047 
     32 CA         25.5206   25.5482    2.7406 C.3       2 UNK         0.0288 
     33 CB         24.7209   26.6202    1.9859 C.3       2 UNK        -0.2113 
     34 N          26.4873   24.9341    1.8231 N.am      2 UNK        -0.4145 
     35 C          27.1967   23.8274    2.0834 C.2       1 UNK         0.5006 
     36 O          27.0473   23.1572    3.1079 O.2       1 UNK        -0.5103 
     37 C          29.1996   28.0393   -1.5947 C.2       5 UNK         0.5055 
     38 O          29.6262   29.1953   -1.6445 O.2       5 UNK        -0.5220 
     39 N          27.8996   27.7155   -1.6323 N.am      6 UNK        -0.4450 
     40 CA         26.7545   28.6301   -1.7370 C.3       6 UNK         0.0367 
     41 CB         26.7394   29.3243   -3.1155 C.3       6 UNK        -0.1929 
     42 C          26.6372   29.6341   -0.5682 C.2       6 UNK         0.5070 
     43 O          26.0444   30.6995   -0.7438 O.2       6 UNK        -0.5237 
     44 N          27.2002   29.2807    0.5989 N.am      7 UNK        -0.4739 
     45 CA         27.2807   30.0798    1.8293 C.3       7 UNK         0.0276 
     46 CB         25.8912   30.2681    2.4753 C.3       7 UNK        -0.1927 
     47 C          28.0438   31.4091    1.6570 C.2       7 UNK         0.5013 
     48 O          27.7117   32.3981    2.3123 O.2       7 UNK        -0.5193 
     49 N          29.0719   31.4067    0.7951 N.am      8 UNK        -0.4253 
     50 CA         29.9480   32.5534    0.5235 C.3       8 UNK         0.0242 
     51 CB         30.8549   32.2108   -0.6699 C.3       8 UNK        -0.2000 
     52 C          30.7986   33.0189    1.7247 C.2       8 UNK         0.4948 
     53 O          31.2772   34.1540    1.7138 O.2       8 UNK        -0.5275 
     54 N          30.9776   32.1502    2.7256 N.am      9 UNK        -0.4246 
     55 CA         31.7139   32.3785    3.9630 C.3       9 UNK         0.0261 
     56 CB         33.2303   32.2826    3.7015 C.3       9 UNK        -0.1959 
     57 C          31.2635   31.3266    4.9841 C.2       9 UNK         0.5033 
     58 O          30.6143   30.3443    4.6085 O.2       9 UNK        -0.5390 
     59 N          31.6516   31.5180    6.2495 N.am      10 UNK        -0.4215 
     60 CA         31.4221   30.5774    7.3493 C.3       10 UNK         0.0240 
     61 CB         31.3359   31.3653    8.6705 C.3       10 UNK        -0.1982 
     62 C          32.5091   29.4833    7.3777 C.2       10 UNK         0.4970 
     63 O          33.2603   29.3853    8.3499 O.2       10 UNK        -0.4916 
     64 N          32.5985   28.7075    6.2910 N.am      11 UNK        -0.4279 
     65 CA         33.5433   27.5923    6.1213 C.3       11 UNK         0.1003 
     66 C          33.2628   26.4078    7.0881 C.2       11 UNK         0.5709 
     67 N          34.2915   25.6665    7.4759 N.am      11 UNK        -0.7358 
     68 O          32.1226   26.1380    7.4620 O.2       11 UNK        -0.4999 
     69 C69        33.5734   27.1298    4.6424 C.3       12 UNK        -0.0954 
     70 S70        35.1831   26.4929    4.0871 S.3       12 UNK        -0.2268 
     71 C71        34.7832   24.7453    3.7534 C.3       12 UNK         0.0203 
     72 H72        26.9074   23.6988   -3.2794 H         1 UNK         0.0888 
     73 H73        26.3802   22.2639   -2.3968 H         1 UNK         0.0888 
     74 H74        25.3497   23.6966   -2.4478 H         1 UNK         0.0888 
     75 H75        27.4166   22.0482   -0.4197 H         1 UNK         0.3017 
     76 H76        28.8646   24.2334    0.8106 H         1 UNK         0.0873 
     77 H77        29.6612   22.5384    2.3918 H         1 UNK         0.0745 
     78 H78        28.4987   21.3660    1.8200 H         1 UNK         0.0745 
     79 H79        31.6622   21.1794    2.1792 H         1 UNK         0.0705 
     80 H80        32.5139   20.8615    0.6911 H         1 UNK         0.0705 
     81 H81        33.1611   22.6625    3.2912 H         1 UNK         0.1334 
     82 H82        34.7007   26.1588    1.3408 H         1 UNK         0.1417 
     83 H83        32.2099   23.3983   -0.8017 H         1 UNK         0.1562 
     84 H84        34.6096   25.5735   -1.5151 H         1 UNK         0.0748 
     85 H85        33.6116   26.8361   -0.8526 H         1 UNK         0.0748 
     86 H86        30.8907   27.0177   -3.4495 H         1 UNK         0.0940 
     87 H87        31.9341   27.8381   -2.3261 H         1 UNK         0.0940 
     88 H88        29.6656   25.9269   -1.4902 H         1 UNK         0.0703 
     89 H89        31.7750   26.9827   -0.0282 H         1 UNK         0.3081 
     90 H90        31.7853   26.7212    2.4217 H         1 UNK         0.0719 
     91 H91        31.0042   29.5549    1.5412 H         1 UNK         0.0809 
     92 H92        32.1653   29.3050    2.8270 H         1 UNK         0.0809 
     93 H93        32.5056   28.7091    1.2219 H         1 UNK         0.0809 
     94 H94        29.8891   28.5550    3.7235 H         1 UNK         0.2990 
     95 H95        28.2988   26.0789    5.6737 H         1 UNK         0.0690 
     96 H96        29.0632   28.4366    6.2172 H         1 UNK         0.0788 
     97 H97        27.3191   28.3068    6.0810 H         1 UNK         0.0788 
     98 H98        28.2427   29.0323    4.7777 H         1 UNK         0.0788 
     99 H99        27.7979   26.6247    2.9044 H         1 UNK         0.2993 
    100 H100       24.8247   24.7714    3.0650 H         1 UNK         0.0949 
    101 H101       24.1014   26.1717    1.2091 H         1 UNK         0.0767 
    102 H102       24.0549   27.1633    2.6579 H         1 UNK         0.0767 
    103 H103       25.3764   27.3448    1.5050 H         1 UNK         0.0767 
    104 H104       26.6519   25.3919    0.9313 H         1 UNK         0.3013 
    105 H105       27.6503   26.7361   -1.4759 H         1 UNK         0.3121 
    106 H106       25.8658   28.0001   -1.6755 H         1 UNK         0.0774 
    107 H107       25.8159   29.8857   -3.2625 H         1 UNK         0.0815 
    108 H108       27.5665   30.0267   -3.2229 H         1 UNK         0.0815 
    109 H109       26.8068   28.5988   -3.9260 H         1 UNK         0.0815 
    110 H110       27.6856   28.3872    0.6349 H         1 UNK         0.2987 
    111 H111       27.8812   29.4903    2.5215 H         1 UNK         0.0949 
    112 H112       25.2207   30.8436    1.8368 H         1 UNK         0.0806 
    113 H113       25.4160   29.3140    2.6915 H         1 UNK         0.0806 
    114 H114       25.9684   30.7982    3.4255 H         1 UNK         0.0806 
    115 H115       29.2317   30.5756    0.2389 H         1 UNK         0.3010 
    116 H116       29.3108   33.3933    0.2388 H         1 UNK         0.0829 
    117 H117       30.2688   31.9790   -1.5597 H         1 UNK         0.0813 
    118 H118       31.5063   33.0488   -0.9221 H         1 UNK         0.0813 
    119 H119       31.4933   31.3521   -0.4580 H         1 UNK         0.0813 
    120 H120       30.4990   31.2596    2.7045 H         1 UNK         0.3038 
    121 H121       31.4621   33.3678    4.3508 H         1 UNK         0.0769 
    122 H122       33.8033   32.4542    4.6133 H         1 UNK         0.0811 
    123 H123       33.5572   33.0278    2.9762 H         1 UNK         0.0811 
    124 H124       33.5130   31.3013    3.3188 H         1 UNK         0.0811 
    125 H125       32.2113   32.3306    6.4665 H         1 UNK         0.3204 
    126 H126       30.4619   30.0794    7.2035 H         1 UNK         0.0748 
    127 H127       31.1378   30.6984    9.5108 H         1 UNK         0.0771 
    128 H128       32.2626   31.8982    8.8875 H         1 UNK         0.0771 
    129 H129       30.5275   32.0963    8.6431 H         1 UNK         0.0771 
    130 H130       31.9371   28.8630    5.5414 H         1 UNK         0.2980 
    131 H131       34.5262   27.9962    6.3729 H         1 UNK         0.0545 
    132 H132       34.1296   24.8881    8.0951 H         1 UNK         0.3459 
    133 H133       35.2259   25.8689    7.1563 H         1 UNK         0.3459 
    134 H134       32.7856   26.4037    4.4392 H         1 UNK         0.0616 
    135 H135       33.3851   27.9794    3.9938 H         1 UNK         0.0616 
    136 H136       35.7219   24.1938    3.6906 H         1 UNK         0.0634 
    137 H137       34.2528   24.3457    4.6195 H         1 UNK         0.0634 
@<TRIPOS>BOND
     1    1    2 1    
     2    1   72 1    
     3    1   73 1    
     4    1   74 1    
     5    2    3 2    
     6    2    4 am   BACKBONE|DICT|INTERRES
     7    4    5 1    
     8    4   75 1    
     9    5    6 1    
    10    5   35 1    
    11    5   76 1    
    12    6    7 1    
    13    6   77 1    
    14    6   78 1    
    15    7    8 1    
    16    8    9 1    
    17    8   79 1    
    18    8   80 1    
    19    9   10 ar   
    20    9   14 ar   
    21   10   11 ar   
    22   10   81 1    
    23   11   12 ar   
    24   11   71 1    
    25   12   13 ar   
    26   12   82 1    
    27   13   14 ar   
    28   13   15 1    
    29   14   83 1    
    30   15   16 1    
    31   15   84 1    
    32   15   85 1    
    33   16   17 1    
    34   17   18 1    
    35   17   86 1    
    36   17   87 1    
    37   18   19 1    
    38   18   37 1    
    39   18   88 1    
    40   19   20 am   BACKBONE|DICT|INTERRES
    41   19   89 1    
    42   20   21 2    
    43   20   22 1    
    44   22   23 1    
    45   22   24 1    
    46   22   90 1    
    47   23   91 1    
    48   23   92 1    
    49   23   93 1    
    50   24   25 am   BACKBONE|DICT|INTERRES
    51   24   94 1    
    52   25   26 2    
    53   25   27 1    
    54   27   28 1    
    55   27   29 1    
    56   27   95 1    
    57   28   96 1    
    58   28   97 1    
    59   28   98 1    
    60   29   30 am   BACKBONE|DICT|INTERRES
    61   29   99 1    
    62   30   31 2    
    63   30   32 1    
    64   32   33 1    
    65   32   34 1    
    66   32  100 1    
    67   33  101 1    
    68   33  102 1    
    69   33  103 1    
    70   34   35 am   BACKBONE|DICT|INTERRES
    71   34  104 1    
    72   35   36 2    
    73   37   38 2    
    74   37   39 am   BACKBONE|DICT|INTERRES
    75   39   40 1    
    76   39  105 1    
    77   40   41 1    
    78   40   42 1    
    79   40  106 1    
    80   41  107 1    
    81   41  108 1    
    82   41  109 1    
    83   42   43 2    
    84   42   44 am   BACKBONE|DICT|INTERRES
    85   44   45 1    
    86   44  110 1    
    87   45   46 1    
    88   45   47 1    
    89   45  111 1    
    90   46  112 1    
    91   46  113 1    
    92   46  114 1    
    93   47   48 2    
    94   47   49 am   BACKBONE|DICT|INTERRES
    95   49   50 1    
    96   49  115 1    
    97   50   51 1    
    98   50   52 1    
    99   50  116 1    
   100   51  117 1    
   101   51  118 1    
   102   51  119 1    
   103   52   53 2    
   104   52   54 am   BACKBONE|DICT|INTERRES
   105   54   55 1    
   106   54  120 1    
   107   55   56 1    
   108   55   57 1    
   109   55  121 1    
   110   56  122 1    
   111   56  123 1    
   112   56  124 1    
   113   57   58 2    
   114   57   59 am   BACKBONE|DICT|INTERRES
   115   59   60 1    
   116   59  125 1    
   117   60   61 1    
   118   60   62 1    
   119   60  126 1    
   120   61  127 1    
   121   61  128 1    
   122   61  129 1    
   123   62   63 2    
   124   62   64 am   BACKBONE|DICT|INTERRES
   125   64   65 1    
   126   64  130 1    
   127   65   66 1    
   128   65   69 1    
   129   65  131 1    
   130   66   67 am   BACKBONE|DICT|INTERRES
   131   66   68 2    
   132   67  132 1    
   133   67  133 1    
   134   69   70 1    
   135   69  134 1    
   136   69  135 1    
   137   70   71 1    
   138   71  136 1    
   139   71  137 1    
@<TRIPOS>SUBSTRUCTURE
     1 UNK         1 GROUP             0       ****    0 ROOT    
