@<TRIPOS>MOLECULE
3R136
137   139    1
SMALL
USER_CHARGES


@<TRIPOS>ATOM
      1 CA         24.5736   27.8385    3.3910 C.3       0 UNK        -0.1979 
      2 C          25.0748   26.4055    3.4902 C.2       0 UNK         0.4864 
      3 O          24.5736   25.6397    4.3156 O.2       0 UNK        -0.5359 
      4 N          26.0614   26.0428    2.6628 N.am      1 UNK        -0.4318 
      5 CA         26.6320   24.6928    2.5932 C.3       1 UNK         0.0824 
      6 C6         28.1300   24.7238    2.1984 C.3       12 UNK        -0.0944 
      7 S7         29.1628   25.2939    3.5870 S.3       12 UNK        -0.2672 
      8 C8         30.8247   24.7851    3.0466 C.3       12 UNK         0.0333 
      9 C9         31.4267   25.8004    2.0888 C.ar      12 UNK        -0.0807 
     10 C10        32.1036   26.9147    2.5924 C.ar      12 UNK        -0.0894 
     11 C11        32.6538   27.8630    1.7256 C.ar      12 UNK        -0.0804 
     12 C12        32.5001   27.7023    0.3457 C.ar      12 UNK        -0.0824 
     13 C13        31.8178   26.5958   -0.1715 C.ar      12 UNK        -0.0762 
     14 C14        31.3036   25.6347    0.7062 C.ar      12 UNK        -0.0782 
     15 C15        31.6237   26.4592   -1.6792 C.3       12 UNK         0.0230 
     16 S16        29.8746   26.2732   -2.1764 S.3       12 UNK        -0.2608 
     17 C17        29.0320   27.4742   -1.0902 C.3       12 UNK        -0.0989 
     18 CA         27.5905   27.8322   -1.5306 C.3       5 UNK         0.0716 
     19 N          26.7816   26.6496   -1.8239 N.am      5 UNK        -0.4135 
     20 C          25.6722   26.6443   -2.5725 C.2       4 UNK         0.5031 
     21 O          25.2687   27.6259   -3.1999 O.2       4 UNK        -0.5229 
     22 CA         24.8574   25.3375   -2.5946 C.3       4 UNK         0.0329 
     23 CB         24.1001   25.1130   -3.9215 C.3       4 UNK        -0.2001 
     24 N          25.6359   24.1592   -2.1910 N.am      4 UNK        -0.4303 
     25 C          26.5866   23.5083   -2.8820 C.2       3 UNK         0.5044 
     26 O          26.9245   23.8076   -4.0274 O.2       3 UNK        -0.5152 
     27 CA         27.3066   22.3326   -2.1808 C.3       3 UNK         0.0319 
     28 CB         28.8220   22.5879   -2.0997 C.3       3 UNK        -0.2001 
     29 N          26.8164   22.0498   -0.8285 N.am      3 UNK        -0.4354 
     30 C          25.6422   21.4811   -0.5208 C.2       2 UNK         0.4964 
     31 O          24.8705   21.0118   -1.3570 O.2       2 UNK        -0.5047 
     32 CA         25.2380   21.4758    0.9674 C.3       2 UNK         0.0288 
     33 CB         25.4890   20.0903    1.5852 C.3       2 UNK        -0.2113 
     34 N          25.9040   22.4972    1.7910 N.am      2 UNK        -0.4145 
     35 C          25.8233   23.8253    1.6108 C.2       1 UNK         0.5006 
     36 O          25.1970   24.3505    0.6863 O.2       1 UNK        -0.5103 
     37 C          26.9083   28.6343   -0.4075 C.2       5 UNK         0.5055 
     38 O          26.3133   28.0303    0.4900 O.2       5 UNK        -0.5220 
     39 N          27.0732   29.9640   -0.4279 N.am      6 UNK        -0.4450 
     40 CA         26.5896   30.8756    0.6184 C.3       6 UNK         0.0367 
     41 CB         26.7364   32.3268    0.1323 C.3       6 UNK        -0.1929 
     42 C          27.2881   30.6918    1.9822 C.2       6 UNK         0.5070 
     43 O          26.7029   31.0565    3.0024 O.2       6 UNK        -0.5237 
     44 N          28.5001   30.1145    1.9598 N.am      7 UNK        -0.4739 
     45 CA         29.3944   29.7997    3.0810 C.3       7 UNK         0.0276 
     46 CB         28.6809   28.9348    4.1418 C.3       7 UNK        -0.1927 
     47 C          30.0562   31.0427    3.7053 C.2       7 UNK         0.5013 
     48 O          29.6475   32.1781    3.4503 O.2       7 UNK        -0.5193 
     49 N          31.0950   30.7942    4.5082 N.am      8 UNK        -0.4253 
     50 CA         31.9031   31.7830    5.2137 C.3       8 UNK         0.0242 
     51 CB         32.8066   32.5552    4.2304 C.3       8 UNK        -0.2000 
     52 C          32.7597   31.0346    6.2374 C.2       8 UNK         0.4948 
     53 O          33.1302   29.8835    5.9898 O.2       8 UNK        -0.5275 
     54 N          33.1023   31.7112    7.3417 N.am      9 UNK        -0.4246 
     55 CA         33.9572   31.1789    8.4108 C.3       9 UNK         0.0261 
     56 CB         33.9411   32.1442    9.6071 C.3       9 UNK        -0.1959 
     57 C          35.4041   30.9006    7.9636 C.2       9 UNK         0.5033 
     58 O          36.0510   30.0162    8.5266 O.2       9 UNK        -0.5390 
     59 N          35.8723   31.6301    6.9397 N.am      10 UNK        -0.4215 
     60 CA         37.1896   31.4829    6.3129 C.3       10 UNK         0.0240 
     61 CB         37.3653   32.5817    5.2517 C.3       10 UNK        -0.1982 
     62 C          37.4456   30.0957    5.6933 C.2       10 UNK         0.4970 
     63 O          38.6065   29.6983    5.5858 O.2       10 UNK        -0.4916 
     64 N          36.3754   29.3848    5.3140 N.am      11 UNK        -0.4279 
     65 CA         36.4293   27.9968    4.8327 C.3       11 UNK         0.1003 
     66 C          36.5646   26.9399    5.9695 C.2       11 UNK         0.5709 
     67 N          36.5036   27.3047    7.2462 N.am      11 UNK        -0.7358 
     68 O          36.7451   25.7579    5.6860 O.2       11 UNK        -0.4999 
     69 C69        35.2380   27.6685    3.8965 C.3       12 UNK        -0.0954 
     70 S70        35.1834   28.7482    2.4247 S.3       12 UNK        -0.2268 
     71 C71        33.4002   29.0695    2.2762 C.3       12 UNK         0.0203 
     72 H72        25.3020   28.4857    2.9036 H         1 UNK         0.0888 
     73 H73        23.6462   27.8744    2.8203 H         1 UNK         0.0888 
     74 H74        24.3826   28.2436    4.3843 H         1 UNK         0.0888 
     75 H75        26.3515   26.6929    1.9371 H         1 UNK         0.3017 
     76 H76        26.5485   24.2219    3.5756 H         1 UNK         0.0873 
     77 H77        28.2950   25.3671    1.3336 H         1 UNK         0.0745 
     78 H78        28.4825   23.7300    1.9161 H         1 UNK         0.0745 
     79 H79        30.7888   23.7941    2.5917 H         1 UNK         0.0705 
     80 H80        31.4635   24.6899    3.9260 H         1 UNK         0.0705 
     81 H81        32.1988   27.0419    3.6618 H         1 UNK         0.1334 
     82 H82        32.9121   28.4441   -0.3250 H         1 UNK         0.1417 
     83 H83        30.7773   24.7766    0.3110 H         1 UNK         0.1562 
     84 H84        32.1861   25.5949   -2.0346 H         1 UNK         0.0748 
     85 H85        32.0343   27.3263   -2.1988 H         1 UNK         0.0748 
     86 H86        29.6413   28.3790   -1.0447 H         1 UNK         0.0940 
     87 H87        29.0318   27.0614   -0.0802 H         1 UNK         0.0940 
     88 H88        27.6441   28.4487   -2.4307 H         1 UNK         0.0703 
     89 H89        27.0191   25.8107   -1.3192 H         1 UNK         0.3081 
     90 H90        24.1034   25.4585   -1.8154 H         1 UNK         0.0719 
     91 H91        23.3805   25.9132   -4.0986 H         1 UNK         0.0809 
     92 H92        24.7742   25.0937   -4.7780 H         1 UNK         0.0809 
     93 H93        23.5437   24.1759   -3.9082 H         1 UNK         0.0809 
     94 H94        25.4618   23.8629   -1.2355 H         1 UNK         0.2990 
     95 H95        27.1418   21.4464   -2.7972 H         1 UNK         0.0690 
     96 H96        29.3494   21.7212   -1.7009 H         1 UNK         0.0788 
     97 H97        29.0532   23.4429   -1.4639 H         1 UNK         0.0788 
     98 H98        29.2427   22.7929   -3.0852 H         1 UNK         0.0788 
     99 H99        27.3913   22.3778   -0.0674 H         1 UNK         0.2993 
    100 H100       24.1653   21.6782    1.0037 H         1 UNK         0.0949 
    101 H101       26.5512   19.8429    1.6044 H         1 UNK         0.0767 
    102 H102       25.1115   20.0359    2.6066 H         1 UNK         0.0767 
    103 H103       24.9830   19.3100    1.0145 H         1 UNK         0.0767 
    104 H104       26.4468   22.1502    2.5694 H         1 UNK         0.3013 
    105 H105       27.5753   30.3847   -1.1973 H         1 UNK         0.3121 
    106 H106       25.5273   30.6725    0.7713 H         1 UNK         0.0774 
    107 H107       26.3544   33.0267    0.8769 H         1 UNK         0.0815 
    108 H108       27.7792   32.5875   -0.0525 H         1 UNK         0.0815 
    109 H109       26.1763   32.4980   -0.7872 H         1 UNK         0.0815 
    110 H110       28.8761   29.9033    1.0478 H         1 UNK         0.2987 
    111 H111       30.1942   29.1981    2.6473 H         1 UNK         0.0949 
    112 H112       28.1337   28.1136    3.6794 H         1 UNK         0.0806 
    113 H113       29.3957   28.4930    4.8366 H         1 UNK         0.0806 
    114 H114       27.9720   29.5155    4.7326 H         1 UNK         0.0806 
    115 H115       31.3708   29.8395    4.7045 H         1 UNK         0.3010 
    116 H116       31.2386   32.4753    5.7349 H         1 UNK         0.0829 
    117 H117       32.2220   33.1026    3.4911 H         1 UNK         0.0813 
    118 H118       33.4213   33.2881    4.7542 H         1 UNK         0.0813 
    119 H119       33.4815   31.8876    3.6930 H         1 UNK         0.0813 
    120 H120       32.7564   32.6527    7.4653 H         1 UNK         0.3038 
    121 H121       33.5307   30.2268    8.7343 H         1 UNK         0.0769 
    122 H122       34.5497   31.7591   10.4268 H         1 UNK         0.0811 
    123 H123       32.9311   32.2810    9.9941 H         1 UNK         0.0811 
    124 H124       34.3364   33.1256    9.3418 H         1 UNK         0.0811 
    125 H125       35.2652   32.3367    6.5522 H         1 UNK         0.3204 
    126 H126       37.9407   31.6323    7.0914 H         1 UNK         0.0748 
    127 H127       38.3490   32.5193    4.7839 H         1 UNK         0.0771 
    128 H128       36.6216   32.4988    4.4578 H         1 UNK         0.0771 
    129 H129       37.2813   33.5763    5.6904 H         1 UNK         0.0771 
    130 H130       35.4498   29.7657    5.4557 H         1 UNK         0.2980 
    131 H131       37.3365   27.8896    4.2350 H         1 UNK         0.0545 
    132 H132       36.6011   26.6001    7.9595 H         1 UNK         0.3459 
    133 H133       36.3663   28.2725    7.5149 H         1 UNK         0.3459 
    134 H134       35.2924   26.6377    3.5415 H         1 UNK         0.0616 
    135 H135       34.3037   27.7535    4.4528 H         1 UNK         0.0616 
    136 H136       33.0053   29.3530    3.2501 H         1 UNK         0.0634 
    137 H137       33.2493   29.9304    1.6234 H         1 UNK         0.0634 
@<TRIPOS>BOND
     1    1    2 1    
     2    1   72 1    
     3    1   73 1    
     4    1   74 1    
     5    2    3 2    
     6    2    4 am   BACKBONE|DICT|INTERRES
     7    4    5 1    
     8    4   75 1    
     9    5    6 1    
    10    5   35 1    
    11    5   76 1    
    12    6    7 1    
    13    6   77 1    
    14    6   78 1    
    15    7    8 1    
    16    8    9 1    
    17    8   79 1    
    18    8   80 1    
    19    9   10 ar   
    20    9   14 ar   
    21   10   11 ar   
    22   10   81 1    
    23   11   12 ar   
    24   11   71 1    
    25   12   13 ar   
    26   12   82 1    
    27   13   14 ar   
    28   13   15 1    
    29   14   83 1    
    30   15   16 1    
    31   15   84 1    
    32   15   85 1    
    33   16   17 1    
    34   17   18 1    
    35   17   86 1    
    36   17   87 1    
    37   18   19 1    
    38   18   37 1    
    39   18   88 1    
    40   19   20 am   BACKBONE|DICT|INTERRES
    41   19   89 1    
    42   20   21 2    
    43   20   22 1    
    44   22   23 1    
    45   22   24 1    
    46   22   90 1    
    47   23   91 1    
    48   23   92 1    
    49   23   93 1    
    50   24   25 am   BACKBONE|DICT|INTERRES
    51   24   94 1    
    52   25   26 2    
    53   25   27 1    
    54   27   28 1    
    55   27   29 1    
    56   27   95 1    
    57   28   96 1    
    58   28   97 1    
    59   28   98 1    
    60   29   30 am   BACKBONE|DICT|INTERRES
    61   29   99 1    
    62   30   31 2    
    63   30   32 1    
    64   32   33 1    
    65   32   34 1    
    66   32  100 1    
    67   33  101 1    
    68   33  102 1    
    69   33  103 1    
    70   34   35 am   BACKBONE|DICT|INTERRES
    71   34  104 1    
    72   35   36 2    
    73   37   38 2    
    74   37   39 am   BACKBONE|DICT|INTERRES
    75   39   40 1    
    76   39  105 1    
    77   40   41 1    
    78   40   42 1    
    79   40  106 1    
    80   41  107 1    
    81   41  108 1    
    82   41  109 1    
    83   42   43 2    
    84   42   44 am   BACKBONE|DICT|INTERRES
    85   44   45 1    
    86   44  110 1    
    87   45   46 1    
    88   45   47 1    
    89   45  111 1    
    90   46  112 1    
    91   46  113 1    
    92   46  114 1    
    93   47   48 2    
    94   47   49 am   BACKBONE|DICT|INTERRES
    95   49   50 1    
    96   49  115 1    
    97   50   51 1    
    98   50   52 1    
    99   50  116 1    
   100   51  117 1    
   101   51  118 1    
   102   51  119 1    
   103   52   53 2    
   104   52   54 am   BACKBONE|DICT|INTERRES
   105   54   55 1    
   106   54  120 1    
   107   55   56 1    
   108   55   57 1    
   109   55  121 1    
   110   56  122 1    
   111   56  123 1    
   112   56  124 1    
   113   57   58 2    
   114   57   59 am   BACKBONE|DICT|INTERRES
   115   59   60 1    
   116   59  125 1    
   117   60   61 1    
   118   60   62 1    
   119   60  126 1    
   120   61  127 1    
   121   61  128 1    
   122   61  129 1    
   123   62   63 2    
   124   62   64 am   BACKBONE|DICT|INTERRES
   125   64   65 1    
   126   64  130 1    
   127   65   66 1    
   128   65   69 1    
   129   65  131 1    
   130   66   67 am   BACKBONE|DICT|INTERRES
   131   66   68 2    
   132   67  132 1    
   133   67  133 1    
   134   69   70 1    
   135   69  134 1    
   136   69  135 1    
   137   70   71 1    
   138   71  136 1    
   139   71  137 1    
@<TRIPOS>SUBSTRUCTURE
     1 UNK         1 GROUP             0       ****    0 ROOT    
