@<TRIPOS>MOLECULE
3R136
137   139    1
SMALL
USER_CHARGES


@<TRIPOS>ATOM
      1 CA         29.6177   18.9012    3.4359 C.3       0 UNK        -0.1979 
      2 C          29.4660   20.0752    2.4797 C.2       0 UNK         0.4864 
      3 O          30.1896   20.1512    1.4853 O.2       0 UNK        -0.5359 
      4 N          28.5375   20.9930    2.7774 N.am      1 UNK        -0.4318 
      5 CA         28.2230   22.1663    1.9574 C.3       1 UNK         0.0824 
      6 C6         27.2906   23.1550    2.7021 C.3       12 UNK        -0.0944 
      7 S7         28.0394   23.8407    4.2150 S.3       12 UNK        -0.2672 
      8 C8         28.4296   25.5389    3.6903 C.3       12 UNK         0.0333 
      9 C9         29.6859   25.5860    2.8338 C.ar      12 UNK        -0.0807 
     10 C10        30.9365   25.6925    3.4484 C.ar      12 UNK        -0.0894 
     11 C11        32.1016   25.7464    2.6803 C.ar      12 UNK        -0.0804 
     12 C12        32.0096   25.6952    1.2872 C.ar      12 UNK        -0.0824 
     13 C13        30.7656   25.6002    0.6553 C.ar      12 UNK        -0.0762 
     14 C14        29.6047   25.5409    1.4376 C.ar      12 UNK        -0.0782 
     15 C15        30.7104   25.5604   -0.8713 C.3       12 UNK         0.0230 
     16 S16        29.3590   26.5395   -1.6115 S.3       12 UNK        -0.2608 
     17 C17        29.6488   28.2043   -0.9161 C.3       12 UNK        -0.0989 
     18 CA         28.3448   29.0298   -0.7343 C.3       5 UNK         0.0716 
     19 N          27.3364   28.3310    0.0635 N.am      5 UNK        -0.4135 
     20 C          26.2392   27.7456   -0.4248 C.2       4 UNK         0.5031 
     21 O          25.9254   27.7413   -1.6183 O.2       4 UNK        -0.5229 
     22 CA         25.3234   27.0541    0.5894 C.3       4 UNK         0.0329 
     23 CB         24.2062   28.0010    1.0649 C.3       4 UNK        -0.2001 
     24 N          24.7602   25.8731   -0.0562 N.am      4 UNK        -0.4303 
     25 C          24.2179   24.8175    0.5567 C.2       3 UNK         0.5044 
     26 O          24.0738   24.7311    1.7762 O.2       3 UNK        -0.5152 
     27 CA         23.8039   23.6338   -0.3352 C.3       3 UNK         0.0319 
     28 CB         22.8534   24.0460   -1.4797 C.3       3 UNK        -0.2001 
     29 N          24.9736   22.8869   -0.8136 N.am      3 UNK        -0.4354 
     30 C          25.9273   23.2875   -1.6679 C.2       2 UNK         0.4964 
     31 O          25.8780   24.3323   -2.3176 O.2       2 UNK        -0.5047 
     32 CA         27.1816   22.3946   -1.7367 C.3       2 UNK         0.0288 
     33 CB         28.1454   22.8036   -2.8664 C.3       2 UNK        -0.2113 
     34 N          27.8933   22.4547   -0.4570 N.am      2 UNK        -0.4145 
     35 C          27.5537   21.7539    0.6331 C.2       1 UNK         0.5006 
     36 O          26.6782   20.8833    0.6354 O.2       1 UNK        -0.5103 
     37 C          28.6601   30.3472   -0.0133 C.2       5 UNK         0.5055 
     38 O          28.5961   30.3895    1.2176 O.2       5 UNK        -0.5220 
     39 N          29.0632   31.3791   -0.7677 N.am      6 UNK        -0.4450 
     40 CA         29.4924   32.6778   -0.2274 C.3       6 UNK         0.0367 
     41 CB         29.7139   33.6656   -1.3840 C.3       6 UNK        -0.1929 
     42 C          30.7532   32.5911    0.6554 C.2       6 UNK         0.5070 
     43 O          30.9190   33.4049    1.5642 O.2       6 UNK        -0.5237 
     44 N          31.5999   31.5856    0.3925 N.am      7 UNK        -0.4739 
     45 CA         32.8030   31.2667    1.1629 C.3       7 UNK         0.0276 
     46 CB         33.6343   30.2328    0.3860 C.3       7 UNK        -0.1927 
     47 C          32.5228   30.7491    2.5845 C.2       7 UNK         0.5013 
     48 O          33.4286   30.8077    3.4177 O.2       7 UNK        -0.5193 
     49 N          31.2987   30.2623    2.8540 N.am      8 UNK        -0.4253 
     50 CA         30.8936   29.6383    4.1220 C.3       8 UNK         0.0242 
     51 CB         29.4421   29.1487    4.0170 C.3       8 UNK        -0.2000 
     52 C          31.0666   30.5327    5.3616 C.2       8 UNK         0.4948 
     53 O          31.2533   30.0076    6.4586 O.2       8 UNK        -0.5275 
     54 N          31.0572   31.8587    5.1661 N.am      9 UNK        -0.4246 
     55 CA         31.3908   32.8553    6.1857 C.3       9 UNK         0.0261 
     56 CB         31.0783   34.2565    5.6358 C.3       9 UNK        -0.1959 
     57 C          32.8533   32.7813    6.6717 C.2       9 UNK         0.5033 
     58 O          33.1269   33.2186    7.7906 O.2       9 UNK        -0.5390 
     59 N          33.7567   32.2420    5.8403 N.am      10 UNK        -0.4215 
     60 CA         35.1677   32.0350    6.1551 C.3       10 UNK         0.0240 
     61 CB         36.0357   32.5137    4.9779 C.3       10 UNK        -0.1982 
     62 C          35.4474   30.5609    6.4797 C.2       10 UNK         0.4970 
     63 O          36.0263   30.2856    7.5315 O.2       10 UNK        -0.4916 
     64 N          35.0590   29.6446    5.5798 N.am      11 UNK        -0.4279 
     65 CA         35.3450   28.2037    5.7083 C.3       11 UNK         0.1003 
     66 C          34.3976   27.4117    6.6548 C.2       11 UNK         0.5709 
     67 N          33.2815   27.9630    7.1134 N.am      11 UNK        -0.7358 
     68 O          34.6953   26.2700    6.9981 O.2       11 UNK        -0.4999 
     69 C69        35.5352   27.5111    4.3314 C.3       12 UNK        -0.0954 
     70 S70        34.0708   27.5745    3.2502 S.3       12 UNK        -0.2268 
     71 C71        33.4590   25.8684    3.3533 C.3       12 UNK         0.0203 
     72 H72        28.9258   18.9671    4.2754 H         1 UNK         0.0888 
     73 H73        30.6315   18.8703    3.8342 H         1 UNK         0.0888 
     74 H74        29.4277   17.9645    2.9127 H         1 UNK         0.0888 
     75 H75        27.9693   20.8773    3.6040 H         1 UNK         0.3017 
     76 H76        29.1640   22.6718    1.7295 H         1 UNK         0.0873 
     77 H77        26.3592   22.6608    2.9868 H         1 UNK         0.0745 
     78 H78        26.9939   23.9782    2.0494 H         1 UNK         0.0745 
     79 H79        27.5810   25.9762    3.1630 H         1 UNK         0.0705 
     80 H80        28.5731   26.1497    4.5828 H         1 UNK         0.0705 
     81 H81        31.0018   25.7352    4.5272 H         1 UNK         0.1334 
     82 H82        32.9142   25.7423    0.6960 H         1 UNK         0.1417 
     83 H83        28.6381   25.4716    0.9590 H         1 UNK         0.1562 
     84 H84        30.6065   24.5229   -1.1906 H         1 UNK         0.0748 
     85 H85        31.6507   25.9176   -1.2945 H         1 UNK         0.0748 
     86 H86        30.3391   28.7249   -1.5823 H         1 UNK         0.0940 
     87 H87        30.1693   28.1099    0.0386 H         1 UNK         0.0940 
     88 H88        27.9378   29.2740   -1.7180 H         1 UNK         0.0703 
     89 H89        27.4785   28.3965    1.0623 H         1 UNK         0.3081 
     90 H90        25.9207   26.7342    1.4455 H         1 UNK         0.0719 
     91 H91        23.5720   28.3200    0.2368 H         1 UNK         0.0809 
     92 H92        23.5689   27.5250    1.8101 H         1 UNK         0.0809 
     93 H93        24.6230   28.8988    1.5233 H         1 UNK         0.0809 
     94 H94        24.9238   25.8229   -1.0586 H         1 UNK         0.2990 
     95 H95        23.2522   22.9411    0.3026 H         1 UNK         0.0690 
     96 H96        22.5222   23.1762   -2.0469 H         1 UNK         0.0788 
     97 H97        23.3125   24.7431   -2.1805 H         1 UNK         0.0788 
     98 H98        21.9611   24.5316   -1.0827 H         1 UNK         0.0788 
     99 H99        25.1620   22.0271   -0.3083 H         1 UNK         0.2993 
    100 H100       26.8548   21.3700   -1.9295 H         1 UNK         0.0949 
    101 H101       27.6499   22.7531   -3.8368 H         1 UNK         0.0767 
    102 H102       28.5107   23.8233   -2.7411 H         1 UNK         0.0767 
    103 H103       29.0099   22.1408   -2.9094 H         1 UNK         0.0767 
    104 H104       28.6056   23.1654   -0.3798 H         1 UNK         0.3013 
    105 H105       29.0944   31.2725   -1.7722 H         1 UNK         0.3121 
    106 H106       28.6843   33.0607    0.3999 H         1 UNK         0.0774 
    107 H107       28.8033   33.8068   -1.9666 H         1 UNK         0.0815 
    108 H108       30.4991   33.3271   -2.0612 H         1 UNK         0.0815 
    109 H109       30.0096   34.6459   -1.0074 H         1 UNK         0.0815 
    110 H110       31.3878   30.9805   -0.3865 H         1 UNK         0.2987 
    111 H111       33.3929   32.1804    1.2633 H         1 UNK         0.0949 
    112 H112       33.0915   29.2958    0.2523 H         1 UNK         0.0806 
    113 H113       33.9161   30.6052   -0.5990 H         1 UNK         0.0806 
    114 H114       34.5577   29.9970    0.9176 H         1 UNK         0.0806 
    115 H115       30.5920   30.2989    2.1294 H         1 UNK         0.3010 
    116 H116       31.5326   28.7655    4.2676 H         1 UNK         0.0829 
    117 H117       29.3141   28.4685    3.1755 H         1 UNK         0.0813 
    118 H118       29.1460   28.6115    4.9188 H         1 UNK         0.0813 
    119 H119       28.7459   29.9782    3.8878 H         1 UNK         0.0813 
    120 H120       30.8965   32.2001    4.2283 H         1 UNK         0.3038 
    121 H121       30.7501   32.6740    7.0513 H         1 UNK         0.0769 
    122 H122       31.6703   34.4828    4.7478 H         1 UNK         0.0811 
    123 H123       31.2965   35.0255    6.3784 H         1 UNK         0.0811 
    124 H124       30.0253   34.3539    5.3710 H         1 UNK         0.0811 
    125 H125       33.4438   31.8636    4.9490 H         1 UNK         0.3204 
    126 H126       35.4481   32.6253    7.0302 H         1 UNK         0.0748 
    127 H127       35.8880   33.5769    4.7878 H         1 UNK         0.0771 
    128 H128       37.0955   32.3670    5.1903 H         1 UNK         0.0771 
    129 H129       35.8106   31.9771    4.0555 H         1 UNK         0.0771 
    130 H130       34.5615   29.9343    4.7425 H         1 UNK         0.2980 
    131 H131       36.3203   28.1265    6.1931 H         1 UNK         0.0545 
    132 H132       32.6967   27.4270    7.7334 H         1 UNK         0.3459 
    133 H133       32.9765   28.8820    6.8207 H         1 UNK         0.3459 
    134 H134       36.3530   27.9962    3.7967 H         1 UNK         0.0616 
    135 H135       35.8505   26.4742    4.4610 H         1 UNK         0.0616 
    136 H136       33.3940   25.5662    4.3996 H         1 UNK         0.0634 
    137 H137       34.1739   25.1962    2.8768 H         1 UNK         0.0634 
@<TRIPOS>BOND
     1    1    2 1    
     2    1   72 1    
     3    1   73 1    
     4    1   74 1    
     5    2    3 2    
     6    2    4 am   BACKBONE|DICT|INTERRES
     7    4    5 1    
     8    4   75 1    
     9    5    6 1    
    10    5   35 1    
    11    5   76 1    
    12    6    7 1    
    13    6   77 1    
    14    6   78 1    
    15    7    8 1    
    16    8    9 1    
    17    8   79 1    
    18    8   80 1    
    19    9   10 ar   
    20    9   14 ar   
    21   10   11 ar   
    22   10   81 1    
    23   11   12 ar   
    24   11   71 1    
    25   12   13 ar   
    26   12   82 1    
    27   13   14 ar   
    28   13   15 1    
    29   14   83 1    
    30   15   16 1    
    31   15   84 1    
    32   15   85 1    
    33   16   17 1    
    34   17   18 1    
    35   17   86 1    
    36   17   87 1    
    37   18   19 1    
    38   18   37 1    
    39   18   88 1    
    40   19   20 am   BACKBONE|DICT|INTERRES
    41   19   89 1    
    42   20   21 2    
    43   20   22 1    
    44   22   23 1    
    45   22   24 1    
    46   22   90 1    
    47   23   91 1    
    48   23   92 1    
    49   23   93 1    
    50   24   25 am   BACKBONE|DICT|INTERRES
    51   24   94 1    
    52   25   26 2    
    53   25   27 1    
    54   27   28 1    
    55   27   29 1    
    56   27   95 1    
    57   28   96 1    
    58   28   97 1    
    59   28   98 1    
    60   29   30 am   BACKBONE|DICT|INTERRES
    61   29   99 1    
    62   30   31 2    
    63   30   32 1    
    64   32   33 1    
    65   32   34 1    
    66   32  100 1    
    67   33  101 1    
    68   33  102 1    
    69   33  103 1    
    70   34   35 am   BACKBONE|DICT|INTERRES
    71   34  104 1    
    72   35   36 2    
    73   37   38 2    
    74   37   39 am   BACKBONE|DICT|INTERRES
    75   39   40 1    
    76   39  105 1    
    77   40   41 1    
    78   40   42 1    
    79   40  106 1    
    80   41  107 1    
    81   41  108 1    
    82   41  109 1    
    83   42   43 2    
    84   42   44 am   BACKBONE|DICT|INTERRES
    85   44   45 1    
    86   44  110 1    
    87   45   46 1    
    88   45   47 1    
    89   45  111 1    
    90   46  112 1    
    91   46  113 1    
    92   46  114 1    
    93   47   48 2    
    94   47   49 am   BACKBONE|DICT|INTERRES
    95   49   50 1    
    96   49  115 1    
    97   50   51 1    
    98   50   52 1    
    99   50  116 1    
   100   51  117 1    
   101   51  118 1    
   102   51  119 1    
   103   52   53 2    
   104   52   54 am   BACKBONE|DICT|INTERRES
   105   54   55 1    
   106   54  120 1    
   107   55   56 1    
   108   55   57 1    
   109   55  121 1    
   110   56  122 1    
   111   56  123 1    
   112   56  124 1    
   113   57   58 2    
   114   57   59 am   BACKBONE|DICT|INTERRES
   115   59   60 1    
   116   59  125 1    
   117   60   61 1    
   118   60   62 1    
   119   60  126 1    
   120   61  127 1    
   121   61  128 1    
   122   61  129 1    
   123   62   63 2    
   124   62   64 am   BACKBONE|DICT|INTERRES
   125   64   65 1    
   126   64  130 1    
   127   65   66 1    
   128   65   69 1    
   129   65  131 1    
   130   66   67 am   BACKBONE|DICT|INTERRES
   131   66   68 2    
   132   67  132 1    
   133   67  133 1    
   134   69   70 1    
   135   69  134 1    
   136   69  135 1    
   137   70   71 1    
   138   71  136 1    
   139   71  137 1    
@<TRIPOS>SUBSTRUCTURE
     1 UNK         1 GROUP             0       ****    0 ROOT    
