@<TRIPOS>MOLECULE
3R136
137   139    1
SMALL
USER_CHARGES


@<TRIPOS>ATOM
      1 CA         32.8275   22.3952   -3.9268 C.3       0 UNK        -0.1979 
      2 C          31.7377   22.8178   -2.9525 C.2       0 UNK         0.4864 
      3 O          30.8350   22.0280   -2.6728 O.2       0 UNK        -0.5359 
      4 N          31.8198   24.0574   -2.4449 N.am      1 UNK        -0.4318 
      5 CA         30.9000   24.6727   -1.4727 C.3       1 UNK         0.0824 
      6 C6         30.9529   24.0160   -0.0646 C.3       12 UNK        -0.0944 
      7 S7         32.6391   24.0771    0.6299 S.3       12 UNK        -0.2672 
      8 C8         32.4957   22.9624    2.0630 C.3       12 UNK         0.0333 
      9 C9         31.6589   23.5389    3.2007 C.ar      12 UNK        -0.0807 
     10 C10        31.9281   24.8138    3.7136 C.ar      12 UNK        -0.0894 
     11 C11        31.1856   25.3186    4.7846 C.ar      12 UNK        -0.0804 
     12 C12        30.1957   24.5271    5.3706 C.ar      12 UNK        -0.0824 
     13 C13        29.8969   23.2648    4.8523 C.ar      12 UNK        -0.0762 
     14 C14        30.6329   22.7753    3.7685 C.ar      12 UNK        -0.0782 
     15 C15        28.7751   22.4336    5.4582 C.3       12 UNK         0.0230 
     16 S16        27.1788   22.7609    4.6408 S.3       12 UNK        -0.2608 
     17 C17        26.7064   24.3795    5.3454 C.3       12 UNK        -0.0989 
     18 CA         27.0396   25.5639    4.4014 C.3       5 UNK         0.0716 
     19 N          26.3436   25.4616    3.1187 N.am      5 UNK        -0.4135 
     20 C          26.7180   26.0901    1.9983 C.2       4 UNK         0.5031 
     21 O          27.6846   26.8536    1.9393 O.2       4 UNK        -0.5229 
     22 CA         25.9098   25.7587    0.7315 C.3       4 UNK         0.0329 
     23 CB         24.3834   25.8972    0.9312 C.3       4 UNK        -0.2001 
     24 N          26.3879   26.5156   -0.4306 N.am      4 UNK        -0.4303 
     25 C          26.2145   27.8181   -0.7109 C.2       3 UNK         0.5044 
     26 O          25.4970   28.5763   -0.0564 O.2       3 UNK        -0.5152 
     27 CA         26.9757   28.3956   -1.9257 C.3       3 UNK         0.0319 
     28 CB         27.9531   29.4949   -1.4757 C.3       3 UNK        -0.2001 
     29 N          27.7215   27.3949   -2.6938 N.am      3 UNK        -0.4354 
     30 C          27.1812   26.4748   -3.5056 C.2       2 UNK         0.4964 
     31 O          25.9838   26.4329   -3.7884 O.2       2 UNK        -0.5047 
     32 CA         28.1266   25.3971   -4.0716 C.3       2 UNK         0.0288 
     33 CB         28.4721   25.7012   -5.5388 C.3       2 UNK        -0.2113 
     34 N          29.3730   25.2153   -3.3146 N.am      2 UNK        -0.4145 
     35 C          29.4668   24.8096   -2.0370 C.2       1 UNK         0.5006 
     36 O          28.4859   24.5757   -1.3277 O.2       1 UNK        -0.5103 
     37 C          26.7694   26.9297    5.0636 C.2       5 UNK         0.5055 
     38 O          25.8489   27.0504    5.8746 O.2       5 UNK        -0.5220 
     39 N          27.5672   27.9330    4.6886 N.am      6 UNK        -0.4450 
     40 CA         27.5104   29.3110    5.1618 C.3       6 UNK         0.0367 
     41 CB         26.4140   30.0727    4.3914 C.3       6 UNK        -0.1929 
     42 C          28.8838   29.9584    4.9484 C.2       6 UNK         0.5070 
     43 O          29.7394   29.3815    4.2719 O.2       6 UNK        -0.5237 
     44 N          29.0626   31.1761    5.4787 N.am      7 UNK        -0.4739 
     45 CA         30.2834   31.9859    5.3418 C.3       7 UNK         0.0276 
     46 CB         30.1295   33.2828    6.1506 C.3       7 UNK        -0.1927 
     47 C          30.6798   32.3005    3.8857 C.2       7 UNK         0.5013 
     48 O          31.8621   32.5031    3.6097 O.2       7 UNK        -0.5193 
     49 N          29.7005   32.2675    2.9704 N.am      8 UNK        -0.4253 
     50 CA         29.8850   32.3389    1.5184 C.3       8 UNK         0.0242 
     51 CB         28.5058   32.3877    0.8430 C.3       8 UNK        -0.2000 
     52 C          30.7337   31.1897    0.9352 C.2       8 UNK         0.4948 
     53 O          31.3482   31.3811   -0.1139 O.2       8 UNK        -0.5275 
     54 N          30.7914   30.0429    1.6303 N.am      9 UNK        -0.4246 
     55 CA         31.6674   28.9100    1.3198 C.3       9 UNK         0.0261 
     56 CB         30.8871   27.5986    1.5141 C.3       9 UNK        -0.1959 
     57 C          32.9833   28.9488    2.1285 C.2       9 UNK         0.5033 
     58 O          33.6300   27.9126    2.2823 O.2       9 UNK        -0.5390 
     59 N          33.3700   30.1408    2.6097 N.am      10 UNK        -0.4215 
     60 CA         34.6345   30.4868    3.2711 C.3       10 UNK         0.0240 
     61 CB         35.8501   30.1682    2.3723 C.3       10 UNK        -0.1982 
     62 C          34.7956   29.9528    4.7073 C.2       10 UNK         0.4970 
     63 O          35.9189   29.9394    5.2150 O.2       10 UNK        -0.4916 
     64 N          33.6916   29.5726    5.3632 N.am      11 UNK        -0.4279 
     65 CA         33.6589   29.3097    6.8113 C.3       11 UNK         0.1003 
     66 C          33.7657   30.6199    7.6412 C.2       11 UNK         0.5709 
     67 N          34.3018   30.5432    8.8517 N.am      11 UNK        -0.7358 
     68 O          33.3391   31.6923    7.2173 O.2       11 UNK        -0.4999 
     69 C69        32.4070   28.4950    7.2219 C.3       12 UNK        -0.0954 
     70 S70        32.5359   26.7490    6.7180 S.3       12 UNK        -0.2268 
     71 C71        31.4196   26.7304    5.2919 C.3       12 UNK         0.0203 
     72 H72        33.5624   23.1842   -4.0860 H         1 UNK         0.0888 
     73 H73        33.3502   21.5181   -3.5460 H         1 UNK         0.0888 
     74 H74        32.3900   22.1396   -4.8915 H         1 UNK         0.0888 
     75 H75        32.6015   24.6382   -2.7155 H         1 UNK         0.3017 
     76 H76        31.2463   25.7005   -1.3508 H         1 UNK         0.0873 
     77 H77        30.2866   24.5318    0.6303 H         1 UNK         0.0745 
     78 H78        30.6146   22.9794   -0.1062 H         1 UNK         0.0745 
     79 H79        32.0955   22.0050    1.7257 H         1 UNK         0.0705 
     80 H80        33.4974   22.7585    2.4431 H         1 UNK         0.0705 
     81 H81        32.7089   25.4187    3.2715 H         1 UNK         0.1334 
     82 H82        29.6325   24.9123    6.2094 H         1 UNK         0.1417 
     83 H83        30.4093   21.7936    3.3730 H         1 UNK         0.1562 
     84 H84        28.6922   22.6202    6.5301 H         1 UNK         0.0748 
     85 H85        29.0079   21.3725    5.3559 H         1 UNK         0.0748 
     86 H86        27.1963   24.5063    6.3124 H         1 UNK         0.0940 
     87 H87        25.6361   24.3534    5.5596 H         1 UNK         0.0940 
     88 H88        28.1060   25.5227    4.1826 H         1 UNK         0.0703 
     89 H89        25.5458   24.8446    3.0951 H         1 UNK         0.3081 
     90 H90        26.1211   24.7139    0.4988 H         1 UNK         0.0719 
     91 H91        24.1125   26.8683    1.3468 H         1 UNK         0.0809 
     92 H92        23.8482   25.7754   -0.0106 H         1 UNK         0.0809 
     93 H93        24.0018   25.1372    1.6132 H         1 UNK         0.0809 
     94 H94        27.0531   26.0039   -1.0001 H         1 UNK         0.2990 
     95 H95        26.2333   28.8482   -2.5863 H         1 UNK         0.0690 
     96 H96        28.4901   29.9263   -2.3207 H         1 UNK         0.0788 
     97 H97        28.6884   29.1175   -0.7635 H         1 UNK         0.0788 
     98 H98        27.4155   30.3088   -0.9893 H         1 UNK         0.0788 
     99 H99        28.7173   27.3590   -2.5355 H         1 UNK         0.2993 
    100 H100       27.5836   24.4501   -4.0362 H         1 UNK         0.0949 
    101 H101       29.0573   24.8963   -5.9844 H         1 UNK         0.0767 
    102 H102       27.5676   25.8105   -6.1391 H         1 UNK         0.0767 
    103 H103       29.0416   26.6265   -5.6361 H         1 UNK         0.0767 
    104 H104       30.2310   25.3762   -3.8225 H         1 UNK         0.3013 
    105 H105       28.2834   27.7637    3.9890 H         1 UNK         0.3121 
    106 H106       27.2908   29.3185    6.2314 H         1 UNK         0.0774 
    107 H107       26.3389   31.1095    4.7205 H         1 UNK         0.0815 
    108 H108       26.6103   30.0802    3.3180 H         1 UNK         0.0815 
    109 H109       25.4345   29.6192    4.5444 H         1 UNK         0.0815 
    110 H110       28.3111   31.5852    6.0165 H         1 UNK         0.2987 
    111 H111       31.1033   31.4094    5.7734 H         1 UNK         0.0949 
    112 H112       29.3046   33.8945    5.7833 H         1 UNK         0.0806 
    113 H113       29.9531   33.0739    7.2058 H         1 UNK         0.0806 
    114 H114       31.0366   33.8866    6.0921 H         1 UNK         0.0806 
    115 H115       28.7614   32.0992    3.2993 H         1 UNK         0.3010 
    116 H116       30.4096   33.2712    1.2986 H         1 UNK         0.0829 
    117 H117       27.9375   33.2613    1.1627 H         1 UNK         0.0813 
    118 H118       28.6040   32.4478   -0.2420 H         1 UNK         0.0813 
    119 H119       27.9145   31.5000    1.0715 H         1 UNK         0.0813 
    120 H120       30.2748   29.9635    2.5030 H         1 UNK         0.3038 
    121 H121       31.9613   28.9528    0.2692 H         1 UNK         0.0769 
    122 H122       30.5078   27.4931    2.5295 H         1 UNK         0.0811 
    123 H123       31.5125   26.7311    1.3076 H         1 UNK         0.0811 
    124 H124       30.0353   27.5453    0.8367 H         1 UNK         0.0811 
    125 H125       32.7342   30.9231    2.4978 H         1 UNK         0.3204 
    126 H126       34.6021   31.5718    3.3812 H         1 UNK         0.0748 
    127 H127       36.7651   30.5973    2.7824 H         1 UNK         0.0771 
    128 H128       36.0129   29.0944    2.2759 H         1 UNK         0.0771 
    129 H129       35.7233   30.5807    1.3714 H         1 UNK         0.0771 
    130 H130       32.8027   29.6262    4.8909 H         1 UNK         0.2980 
    131 H131       34.5397   28.7124    7.0573 H         1 UNK         0.0545 
    132 H132       34.6459   29.6684    9.2164 H         1 UNK         0.3459 
    133 H133       34.3683   31.3795    9.4104 H         1 UNK         0.3459 
    134 H134       32.2864   28.4905    8.3070 H         1 UNK         0.0616 
    135 H135       31.4972   28.9467    6.8221 H         1 UNK         0.0616 
    136 H136       30.4646   27.1742    5.5749 H         1 UNK         0.0634 
    137 H137       31.8365   27.3582    4.5043 H         1 UNK         0.0634 
@<TRIPOS>BOND
     1    1    2 1    
     2    1   72 1    
     3    1   73 1    
     4    1   74 1    
     5    2    3 2    
     6    2    4 am   BACKBONE|DICT|INTERRES
     7    4    5 1    
     8    4   75 1    
     9    5    6 1    
    10    5   35 1    
    11    5   76 1    
    12    6    7 1    
    13    6   77 1    
    14    6   78 1    
    15    7    8 1    
    16    8    9 1    
    17    8   79 1    
    18    8   80 1    
    19    9   10 ar   
    20    9   14 ar   
    21   10   11 ar   
    22   10   81 1    
    23   11   12 ar   
    24   11   71 1    
    25   12   13 ar   
    26   12   82 1    
    27   13   14 ar   
    28   13   15 1    
    29   14   83 1    
    30   15   16 1    
    31   15   84 1    
    32   15   85 1    
    33   16   17 1    
    34   17   18 1    
    35   17   86 1    
    36   17   87 1    
    37   18   19 1    
    38   18   37 1    
    39   18   88 1    
    40   19   20 am   BACKBONE|DICT|INTERRES
    41   19   89 1    
    42   20   21 2    
    43   20   22 1    
    44   22   23 1    
    45   22   24 1    
    46   22   90 1    
    47   23   91 1    
    48   23   92 1    
    49   23   93 1    
    50   24   25 am   BACKBONE|DICT|INTERRES
    51   24   94 1    
    52   25   26 2    
    53   25   27 1    
    54   27   28 1    
    55   27   29 1    
    56   27   95 1    
    57   28   96 1    
    58   28   97 1    
    59   28   98 1    
    60   29   30 am   BACKBONE|DICT|INTERRES
    61   29   99 1    
    62   30   31 2    
    63   30   32 1    
    64   32   33 1    
    65   32   34 1    
    66   32  100 1    
    67   33  101 1    
    68   33  102 1    
    69   33  103 1    
    70   34   35 am   BACKBONE|DICT|INTERRES
    71   34  104 1    
    72   35   36 2    
    73   37   38 2    
    74   37   39 am   BACKBONE|DICT|INTERRES
    75   39   40 1    
    76   39  105 1    
    77   40   41 1    
    78   40   42 1    
    79   40  106 1    
    80   41  107 1    
    81   41  108 1    
    82   41  109 1    
    83   42   43 2    
    84   42   44 am   BACKBONE|DICT|INTERRES
    85   44   45 1    
    86   44  110 1    
    87   45   46 1    
    88   45   47 1    
    89   45  111 1    
    90   46  112 1    
    91   46  113 1    
    92   46  114 1    
    93   47   48 2    
    94   47   49 am   BACKBONE|DICT|INTERRES
    95   49   50 1    
    96   49  115 1    
    97   50   51 1    
    98   50   52 1    
    99   50  116 1    
   100   51  117 1    
   101   51  118 1    
   102   51  119 1    
   103   52   53 2    
   104   52   54 am   BACKBONE|DICT|INTERRES
   105   54   55 1    
   106   54  120 1    
   107   55   56 1    
   108   55   57 1    
   109   55  121 1    
   110   56  122 1    
   111   56  123 1    
   112   56  124 1    
   113   57   58 2    
   114   57   59 am   BACKBONE|DICT|INTERRES
   115   59   60 1    
   116   59  125 1    
   117   60   61 1    
   118   60   62 1    
   119   60  126 1    
   120   61  127 1    
   121   61  128 1    
   122   61  129 1    
   123   62   63 2    
   124   62   64 am   BACKBONE|DICT|INTERRES
   125   64   65 1    
   126   64  130 1    
   127   65   66 1    
   128   65   69 1    
   129   65  131 1    
   130   66   67 am   BACKBONE|DICT|INTERRES
   131   66   68 2    
   132   67  132 1    
   133   67  133 1    
   134   69   70 1    
   135   69  134 1    
   136   69  135 1    
   137   70   71 1    
   138   71  136 1    
   139   71  137 1    
@<TRIPOS>SUBSTRUCTURE
     1 UNK         1 GROUP             0       ****    0 ROOT    
