@<TRIPOS>MOLECULE
3R136
137   139    1
SMALL
USER_CHARGES


@<TRIPOS>ATOM
      1 CA         27.5026   25.0819    6.7279 C.3       0 UNK        -0.1979 
      2 C          27.5018   24.7645    5.2407 C.2       0 UNK         0.4864 
      3 O          26.7041   23.9427    4.7893 O.2       0 UNK        -0.5359 
      4 N          28.3803   25.4222    4.4750 N.am      1 UNK        -0.4318 
      5 CA         28.5683   25.2271    3.0295 C.3       1 UNK         0.0824 
      6 C6         30.0740   25.2855    2.6500 C.3       12 UNK        -0.0944 
      7 S7         31.1366   24.2265    3.7036 S.3       12 UNK        -0.2672 
      8 C8         32.0423   23.1939    2.5049 C.3       12 UNK         0.0333 
      9 C9         32.8551   24.0309    1.5269 C.ar      12 UNK        -0.0807 
     10 C10        33.8944   24.8461    1.9807 C.ar      12 UNK        -0.0894 
     11 C11        34.5996   25.6609    1.0907 C.ar      12 UNK        -0.0804 
     12 C12        34.2497   25.6548   -0.2638 C.ar      12 UNK        -0.0824 
     13 C13        33.2079   24.8492   -0.7360 C.ar      12 UNK        -0.0762 
     14 C14        32.5459   24.0067    0.1662 C.ar      12 UNK        -0.0782 
     15 C15        32.8315   24.9542   -2.2167 C.3       12 UNK         0.0230 
     16 S16        31.3464   24.0356   -2.7675 S.3       12 UNK        -0.2608 
     17 C17        29.9909   24.7592   -1.7785 C.3       12 UNK        -0.0989 
     18 CA         29.3194   25.9914   -2.4354 C.3       5 UNK         0.0716 
     19 N          27.8834   26.0316   -2.1732 N.am      5 UNK        -0.4135 
     20 C          26.9677   25.3710   -2.8937 C.2       4 UNK         0.5031 
     21 O          27.2374   24.6693   -3.8697 O.2       4 UNK        -0.5229 
     22 CA         25.4982   25.4942   -2.4550 C.3       4 UNK         0.0329 
     23 CB         25.0851   24.2677   -1.6253 C.3       4 UNK        -0.2001 
     24 N          25.2216   26.7027   -1.6801 N.am      4 UNK        -0.4303 
     25 C          25.2513   27.9560   -2.1456 C.2       3 UNK         0.5044 
     26 O          25.4759   28.2412   -3.3221 O.2       3 UNK        -0.5152 
     27 CA         25.0179   29.0882   -1.1309 C.3       3 UNK         0.0319 
     28 CB         23.5179   29.4186   -1.0076 C.3       3 UNK        -0.2001 
     29 N          25.6304   28.8767    0.1902 N.am      3 UNK        -0.4354 
     30 C          25.3300   27.9724    1.1337 C.2       2 UNK         0.4964 
     31 O          24.5000   27.0707    1.0020 O.2       2 UNK        -0.5047 
     32 CA         26.0674   28.1295    2.4689 C.3       2 UNK         0.0288 
     33 CB         25.0808   28.5241    3.5806 C.3       2 UNK        -0.2113 
     34 N          26.8128   26.9466    2.8961 N.am      2 UNK        -0.4145 
     35 C          27.7422   26.2562    2.2154 C.2       1 UNK         0.5006 
     36 O          27.9963   26.4338    1.0200 O.2       1 UNK        -0.5103 
     37 C          29.9857   27.3073   -2.0002 C.2       5 UNK         0.5055 
     38 O          30.6855   27.9210   -2.8076 O.2       5 UNK        -0.5220 
     39 N          29.7744   27.7135   -0.7405 N.am      6 UNK        -0.4450 
     40 CA         30.4370   28.8576   -0.1168 C.3       6 UNK         0.0367 
     41 CB         31.8139   28.4288    0.4320 C.3       6 UNK        -0.1929 
     42 C          29.4964   29.5016    0.9145 C.2       6 UNK         0.5070 
     43 O          28.3529   29.8000    0.5617 O.2       6 UNK        -0.5237 
     44 N          29.9744   29.7351    2.1437 N.am      7 UNK        -0.4739 
     45 CA         29.2390   30.3931    3.2251 C.3       7 UNK         0.0276 
     46 CB         30.0804   31.5806    3.7275 C.3       7 UNK        -0.1927 
     47 C          28.9578   29.4157    4.3765 C.2       7 UNK         0.5013 
     48 O          29.4968   28.3064    4.4121 O.2       7 UNK        -0.5193 
     49 N          28.1365   29.8628    5.3374 N.am      8 UNK        -0.4253 
     50 CA         27.8328   29.1370    6.5783 C.3       8 UNK         0.0242 
     51 CB         26.7123   29.8650    7.3375 C.3       8 UNK        -0.2000 
     52 C          29.0620   28.9398    7.4869 C.2       8 UNK         0.4948 
     53 O          29.1195   27.9543    8.2204 O.2       8 UNK        -0.5275 
     54 N          30.0403   29.8493    7.3804 N.am      9 UNK        -0.4246 
     55 CA         31.3589   29.7668    8.0134 C.3       9 UNK         0.0261 
     56 CB         31.8062   31.1877    8.4054 C.3       9 UNK        -0.1959 
     57 C          32.3984   29.0700    7.1083 C.2       9 UNK         0.5033 
     58 O          33.5959   29.3247    7.2609 O.2       9 UNK        -0.5390 
     59 N          31.9363   28.2303    6.1671 N.am      10 UNK        -0.4215 
     60 CA         32.7093   27.5481    5.1272 C.3       10 UNK         0.0240 
     61 CB         33.6818   26.5122    5.7394 C.3       10 UNK        -0.1982 
     62 C          33.3621   28.5828    4.1981 C.2       10 UNK         0.4970 
     63 O          32.6384   29.2614    3.4689 O.2       10 UNK        -0.4916 
     64 N          34.6896   28.7073    4.2708 N.am      11 UNK        -0.4279 
     65 CA         35.4854   29.7403    3.5927 C.3       11 UNK         0.1003 
     66 C          36.2468   30.6462    4.6047 C.2       11 UNK         0.5709 
     67 N          35.9173   30.6343    5.8930 N.am      11 UNK        -0.7358 
     68 O          37.1451   31.3906    4.2185 O.2       11 UNK        -0.4999 
     69 C69        36.4165   29.1289    2.5091 C.3       12 UNK        -0.0954 
     70 S70        35.4711   28.2999    1.1871 S.3       12 UNK        -0.2268 
     71 C71        35.7320   26.5448    1.5990 C.3       12 UNK         0.0203 
     72 H72        27.4821   24.1603    7.3090 H         1 UNK         0.0888 
     73 H73        26.6243   25.6708    6.9907 H         1 UNK         0.0888 
     74 H74        28.3917   25.6401    7.0203 H         1 UNK         0.0888 
     75 H75        28.9867   26.1247    4.8807 H         1 UNK         0.3017 
     76 H76        28.1972   24.2397    2.7472 H         1 UNK         0.0873 
     77 H77        30.4474   26.3075    2.7326 H         1 UNK         0.0745 
     78 H78        30.2044   25.0006    1.6063 H         1 UNK         0.0745 
     79 H79        32.7131   22.5271    3.0481 H         1 UNK         0.0705 
     80 H80        31.3296   22.5549    1.9812 H         1 UNK         0.0705 
     81 H81        34.1414   24.8488    3.0319 H         1 UNK         0.1334 
     82 H82        34.7807   26.3000   -0.9507 H         1 UNK         0.1417 
     83 H83        31.7594   23.3488   -0.1722 H         1 UNK         0.1562 
     84 H84        33.6778   24.6034   -2.8087 H         1 UNK         0.0748 
     85 H85        32.6975   26.0057   -2.4737 H         1 UNK         0.0748 
     86 H86        30.3094   24.9850   -0.7626 H         1 UNK         0.0940 
     87 H87        29.2612   23.9559   -1.6636 H         1 UNK         0.0940 
     88 H88        29.4508   25.9276   -3.5183 H         1 UNK         0.0703 
     89 H89        27.5776   26.5818   -1.3823 H         1 UNK         0.3081 
     90 H90        24.8855   25.5243   -3.3585 H         1 UNK         0.0719 
     91 H91        25.6529   24.2005   -0.6961 H         1 UNK         0.0809 
     92 H92        24.0259   24.3004   -1.3693 H         1 UNK         0.0809 
     93 H93        25.2551   23.3440   -2.1804 H         1 UNK         0.0809 
     94 H94        24.9886   26.5837   -0.6963 H         1 UNK         0.2990 
     95 H95        25.5135   29.9712   -1.5380 H         1 UNK         0.0690 
     96 H96        23.3529   30.2719   -0.3497 H         1 UNK         0.0788 
     97 H97        22.9442   28.5776   -0.6168 H         1 UNK         0.0788 
     98 H98        23.0951   29.6734   -1.9805 H         1 UNK         0.0788 
     99 H99        26.4329   29.4751    0.3756 H         1 UNK         0.2993 
    100 H100       26.7891   28.9375    2.3715 H         1 UNK         0.0949 
    101 H101       24.5307   29.4274    3.3129 H         1 UNK         0.0767 
    102 H102       24.3466   27.7381    3.7636 H         1 UNK         0.0767 
    103 H103       25.5942   28.7264    4.5195 H         1 UNK         0.0767 
    104 H104       26.6772   26.6713    3.8564 H         1 UNK         0.3013 
    105 H105       29.1415   27.1972   -0.1291 H         1 UNK         0.3121 
    106 H106       30.6037   29.6261   -0.8744 H         1 UNK         0.0774 
    107 H107       32.4363   28.0035   -0.3549 H         1 UNK         0.0815 
    108 H108       31.7298   27.6808    1.2207 H         1 UNK         0.0815 
    109 H109       32.3630   29.2814    0.8325 H         1 UNK         0.0815 
    110 H110       30.9060   29.4141    2.3930 H         1 UNK         0.2987 
    111 H111       28.2828   30.7756    2.8626 H         1 UNK         0.0949 
    112 H112       31.0152   31.2525    4.1839 H         1 UNK         0.0806 
    113 H113       30.3315   32.2580    2.9111 H         1 UNK         0.0806 
    114 H114       29.5414   32.1672    4.4721 H         1 UNK         0.0806 
    115 H115       27.7232   30.7797    5.2399 H         1 UNK         0.3010 
    116 H116       27.4696   28.1451    6.3026 H         1 UNK         0.0829 
    117 H117       25.8063   29.9416    6.7363 H         1 UNK         0.0813 
    118 H118       26.4477   29.3280    8.2497 H         1 UNK         0.0813 
    119 H119       27.0091   30.8735    7.6286 H         1 UNK         0.0813 
    120 H120       29.8991   30.6218    6.7461 H         1 UNK         0.3038 
    121 H121       31.2868   29.1738    8.9275 H         1 UNK         0.0769 
    122 H122       31.9589   31.8187    7.5289 H         1 UNK         0.0811 
    123 H123       32.7460   31.1657    8.9588 H         1 UNK         0.0811 
    124 H124       31.0699   31.6733    9.0461 H         1 UNK         0.0811 
    125 H125       30.9331   28.1555    6.0540 H         1 UNK         0.3204 
    126 H126       31.9921   27.0042    4.5124 H         1 UNK         0.0748 
    127 H127       33.1312   25.7379    6.2738 H         1 UNK         0.0771 
    128 H128       34.2637   26.0105    4.9674 H         1 UNK         0.0771 
    129 H129       34.3859   26.9562    6.4432 H         1 UNK         0.0771 
    130 H130       35.1907   28.1381    4.9365 H         1 UNK         0.2980 
    131 H131       34.8140   30.4322    3.0815 H         1 UNK         0.0545 
    132 H132       36.4211   31.2318    6.5285 H         1 UNK         0.3459 
    133 H133       35.1395   30.0810    6.2396 H         1 UNK         0.3459 
    134 H134       37.0107   29.9091    2.0304 H         1 UNK         0.0616 
    135 H135       37.1305   28.4348    2.9553 H         1 UNK         0.0616 
    136 H136       36.6763   26.2116    1.1670 H         1 UNK         0.0634 
    137 H137       35.8299   26.4415    2.6806 H         1 UNK         0.0634 
@<TRIPOS>BOND
     1    1    2 1    
     2    1   72 1    
     3    1   73 1    
     4    1   74 1    
     5    2    3 2    
     6    2    4 am   BACKBONE|DICT|INTERRES
     7    4    5 1    
     8    4   75 1    
     9    5    6 1    
    10    5   35 1    
    11    5   76 1    
    12    6    7 1    
    13    6   77 1    
    14    6   78 1    
    15    7    8 1    
    16    8    9 1    
    17    8   79 1    
    18    8   80 1    
    19    9   10 ar   
    20    9   14 ar   
    21   10   11 ar   
    22   10   81 1    
    23   11   12 ar   
    24   11   71 1    
    25   12   13 ar   
    26   12   82 1    
    27   13   14 ar   
    28   13   15 1    
    29   14   83 1    
    30   15   16 1    
    31   15   84 1    
    32   15   85 1    
    33   16   17 1    
    34   17   18 1    
    35   17   86 1    
    36   17   87 1    
    37   18   19 1    
    38   18   37 1    
    39   18   88 1    
    40   19   20 am   BACKBONE|DICT|INTERRES
    41   19   89 1    
    42   20   21 2    
    43   20   22 1    
    44   22   23 1    
    45   22   24 1    
    46   22   90 1    
    47   23   91 1    
    48   23   92 1    
    49   23   93 1    
    50   24   25 am   BACKBONE|DICT|INTERRES
    51   24   94 1    
    52   25   26 2    
    53   25   27 1    
    54   27   28 1    
    55   27   29 1    
    56   27   95 1    
    57   28   96 1    
    58   28   97 1    
    59   28   98 1    
    60   29   30 am   BACKBONE|DICT|INTERRES
    61   29   99 1    
    62   30   31 2    
    63   30   32 1    
    64   32   33 1    
    65   32   34 1    
    66   32  100 1    
    67   33  101 1    
    68   33  102 1    
    69   33  103 1    
    70   34   35 am   BACKBONE|DICT|INTERRES
    71   34  104 1    
    72   35   36 2    
    73   37   38 2    
    74   37   39 am   BACKBONE|DICT|INTERRES
    75   39   40 1    
    76   39  105 1    
    77   40   41 1    
    78   40   42 1    
    79   40  106 1    
    80   41  107 1    
    81   41  108 1    
    82   41  109 1    
    83   42   43 2    
    84   42   44 am   BACKBONE|DICT|INTERRES
    85   44   45 1    
    86   44  110 1    
    87   45   46 1    
    88   45   47 1    
    89   45  111 1    
    90   46  112 1    
    91   46  113 1    
    92   46  114 1    
    93   47   48 2    
    94   47   49 am   BACKBONE|DICT|INTERRES
    95   49   50 1    
    96   49  115 1    
    97   50   51 1    
    98   50   52 1    
    99   50  116 1    
   100   51  117 1    
   101   51  118 1    
   102   51  119 1    
   103   52   53 2    
   104   52   54 am   BACKBONE|DICT|INTERRES
   105   54   55 1    
   106   54  120 1    
   107   55   56 1    
   108   55   57 1    
   109   55  121 1    
   110   56  122 1    
   111   56  123 1    
   112   56  124 1    
   113   57   58 2    
   114   57   59 am   BACKBONE|DICT|INTERRES
   115   59   60 1    
   116   59  125 1    
   117   60   61 1    
   118   60   62 1    
   119   60  126 1    
   120   61  127 1    
   121   61  128 1    
   122   61  129 1    
   123   62   63 2    
   124   62   64 am   BACKBONE|DICT|INTERRES
   125   64   65 1    
   126   64  130 1    
   127   65   66 1    
   128   65   69 1    
   129   65  131 1    
   130   66   67 am   BACKBONE|DICT|INTERRES
   131   66   68 2    
   132   67  132 1    
   133   67  133 1    
   134   69   70 1    
   135   69  134 1    
   136   69  135 1    
   137   70   71 1    
   138   71  136 1    
   139   71  137 1    
@<TRIPOS>SUBSTRUCTURE
     1 UNK         1 GROUP             0       ****    0 ROOT    
