@<TRIPOS>MOLECULE
3R136
137   139    1
SMALL
USER_CHARGES


@<TRIPOS>ATOM
      1 CA         28.6621   22.4533   -1.5783 C.3       0 UNK        -0.1979 
      2 C          29.7910   23.4178   -1.9109 C.2       0 UNK         0.4864 
      3 O          30.4373   23.2683   -2.9487 O.2       0 UNK        -0.5359 
      4 N          30.0285   24.3979   -1.0332 N.am      1 UNK        -0.4318 
      5 CA         31.0298   25.4528   -1.1955 C.3       1 UNK         0.0824 
      6 C6         31.6888   25.8259    0.1571 C.3       12 UNK        -0.0944 
      7 S7         33.1382   24.7852    0.5193 S.3       12 UNK        -0.2672 
      8 C8         32.4025   23.3918    1.4395 C.3       12 UNK         0.0333 
      9 C9         31.9136   23.7379    2.8447 C.ar      12 UNK        -0.0807 
     10 C10        32.6400   24.5907    3.6854 C.ar      12 UNK        -0.0894 
     11 C11        32.2059   24.8448    4.9907 C.ar      12 UNK        -0.0804 
     12 C12        31.0383   24.2364    5.4586 C.ar      12 UNK        -0.0824 
     13 C13        30.3074   23.3764    4.6352 C.ar      12 UNK        -0.0762 
     14 C14        30.7488   23.1342    3.3304 C.ar      12 UNK        -0.0782 
     15 C15        29.0733   22.6668    5.1756 C.3       12 UNK         0.0230 
     16 S16        27.5640   23.0621    4.2398 S.3       12 UNK        -0.2608 
     17 C17        27.2865   24.8191    4.6611 C.3       12 UNK        -0.0989 
     18 CA         27.3389   25.7583    3.4257 C.3       5 UNK         0.0716 
     19 N          26.4423   25.2899    2.3684 N.am      5 UNK        -0.4135 
     20 C          26.7976   25.0540    1.1034 C.2       4 UNK         0.5031 
     21 O          27.9369   25.2117    0.6573 O.2       4 UNK        -0.5229 
     22 CA         25.6779   24.6004    0.1480 C.3       4 UNK         0.0329 
     23 CB         24.5229   23.8354    0.8342 C.3       4 UNK        -0.2001 
     24 N          25.1929   25.7480   -0.6220 N.am      4 UNK        -0.4303 
     25 C          24.6560   26.8751   -0.1275 C.2       3 UNK         0.5044 
     26 O          24.2606   27.0039    1.0333 O.2       3 UNK        -0.5152 
     27 CA         24.6990   28.0884   -1.0789 C.3       3 UNK         0.0319 
     28 CB         24.2213   29.3973   -0.4178 C.3       3 UNK        -0.2001 
     29 N          26.0429   28.2594   -1.6566 N.am      3 UNK        -0.4354 
     30 C          27.1986   28.3430   -0.9765 C.2       2 UNK         0.4964 
     31 O          27.2842   28.4196    0.2521 O.2       2 UNK        -0.5047 
     32 CA         28.4817   28.2854   -1.8051 C.3       2 UNK         0.0288 
     33 CB         29.2408   29.6246   -1.7505 C.3       2 UNK        -0.2113 
     34 N          29.2887   27.1835   -1.2835 N.am      2 UNK        -0.4145 
     35 C          30.3763   26.6700   -1.8732 C.2       1 UNK         0.5006 
     36 O          30.8513   27.0998   -2.9260 O.2       1 UNK        -0.5103 
     37 C          27.0001   27.2058    3.8518 C.2       5 UNK         0.5055 
     38 O          27.7448   27.7724    4.6519 O.2       5 UNK        -0.5220 
     39 N          25.8754   27.7737    3.3828 N.am      6 UNK        -0.4450 
     40 CA         25.2888   28.9967    3.9441 C.3       6 UNK         0.0367 
     41 CB         23.8061   29.0891    3.5500 C.3       6 UNK        -0.1929 
     42 C          26.0262   30.2949    3.5785 C.2       6 UNK         0.5070 
     43 O          25.9540   31.2514    4.3510 O.2       6 UNK        -0.5237 
     44 N          26.7115   30.3206    2.4297 N.am      7 UNK        -0.4739 
     45 CA         27.4805   31.4714    1.9425 C.3       7 UNK         0.0276 
     46 CB         26.8450   31.9780    0.6345 C.3       7 UNK        -0.1927 
     47 C          28.9648   31.1143    1.7546 C.2       7 UNK         0.5013 
     48 O          29.6837   31.8481    1.0746 O.2       7 UNK        -0.5193 
     49 N          29.3931   29.9831    2.3299 N.am      8 UNK        -0.4253 
     50 CA         30.7280   29.4089    2.2017 C.3       8 UNK         0.0242 
     51 CB         30.6999   27.9865    2.7811 C.3       8 UNK        -0.2000 
     52 C          31.8028   30.2763    2.8773 C.2       8 UNK         0.4948 
     53 O          31.9493   30.2340    4.0992 O.2       8 UNK        -0.5275 
     54 N          32.5632   31.0249    2.0661 N.am      9 UNK        -0.4246 
     55 CA         33.7230   31.8115    2.5058 C.3       9 UNK         0.0261 
     56 CB         34.1663   32.7443    1.3675 C.3       9 UNK        -0.1959 
     57 C          34.9013   30.9379    2.9780 C.2       9 UNK         0.5033 
     58 O          35.7144   31.3963    3.7823 O.2       9 UNK        -0.5390 
     59 N          34.9497   29.6863    2.4969 N.am      10 UNK        -0.4215 
     60 CA         35.9260   28.6509    2.8477 C.3       10 UNK         0.0240 
     61 CB         35.6362   27.3960    2.0071 C.3       10 UNK        -0.1982 
     62 C          35.9698   28.2874    4.3440 C.2       10 UNK         0.4970 
     63 O          36.9855   27.7564    4.7949 O.2       10 UNK        -0.4916 
     64 N          34.8908   28.5755    5.0844 N.am      11 UNK        -0.4279 
     65 CA         34.8113   28.3964    6.5412 C.3       11 UNK         0.1003 
     66 C          35.6562   29.4206    7.3561 C.2       11 UNK         0.5709 
     67 N          36.1527   30.5027    6.7642 N.am      11 UNK        -0.7358 
     68 O          35.8700   29.2242    8.5501 O.2       11 UNK        -0.4999 
     69 C69        33.3439   28.3692    7.0519 C.3       12 UNK        -0.0954 
     70 S70        32.1716   27.3705    6.0705 S.3       12 UNK        -0.2268 
     71 C71        33.0026   25.7635    5.9041 C.3       12 UNK         0.0203 
     72 H72        28.9990   21.4242   -1.6994 H         1 UNK         0.0888 
     73 H73        28.3164   22.5733   -0.5517 H         1 UNK         0.0888 
     74 H74        27.8179   22.6175   -2.2473 H         1 UNK         0.0888 
     75 H75        29.3909   24.5192   -0.2486 H         1 UNK         0.3017 
     76 H76        31.8134   25.1095   -1.8753 H         1 UNK         0.0873 
     77 H77        32.0464   26.8577    0.1552 H         1 UNK         0.0745 
     78 H78        30.9732   25.7517    0.9761 H         1 UNK         0.0745 
     79 H79        31.5929   22.9701    0.8427 H         1 UNK         0.0705 
     80 H80        33.1552   22.6076    1.5278 H         1 UNK         0.0705 
     81 H81        33.5520   25.0481    3.3285 H         1 UNK         0.1334 
     82 H82        30.7082   24.4278    6.4707 H         1 UNK         0.1417 
     83 H83        30.1885   22.4570    2.6999 H         1 UNK         0.1562 
     84 H84        28.9116   22.9021    6.2289 H         1 UNK         0.0748 
     85 H85        29.2407   21.5899    5.1275 H         1 UNK         0.0748 
     86 H86        28.0228   25.1334    5.4037 H         1 UNK         0.0940 
     87 H87        26.3154   24.8876    5.1555 H         1 UNK         0.0940 
     88 H88        28.3686   25.7702    3.0629 H         1 UNK         0.0703 
     89 H89        25.4778   25.1436    2.6277 H         1 UNK         0.3081 
     90 H90        26.1401   23.9186   -0.5666 H         1 UNK         0.0719 
     91 H91        23.9416   24.4579    1.5142 H         1 UNK         0.0809 
     92 H92        23.8319   23.4340    0.0929 H         1 UNK         0.0809 
     93 H93        24.9032   22.9885    1.4074 H         1 UNK         0.0809 
     94 H94        25.4975   25.7722   -1.5849 H         1 UNK         0.2990 
     95 H95        24.0204   27.8635   -1.9031 H         1 UNK         0.0690 
     96 H96        24.2319   30.2255   -1.1260 H         1 UNK         0.0788 
     97 H97        24.8486   29.6752    0.4276 H         1 UNK         0.0788 
     98 H98        23.1999   29.2981   -0.0488 H         1 UNK         0.0788 
     99 H99        26.0864   28.2155   -2.6657 H         1 UNK         0.2993 
    100 H100       28.2286   28.0655   -2.8444 H         1 UNK         0.0949 
    101 H101       30.0826   29.6388   -2.4423 H         1 UNK         0.0767 
    102 H102       28.5903   30.4577   -2.0196 H         1 UNK         0.0767 
    103 H103       29.6288   29.8210   -0.7535 H         1 UNK         0.0767 
    104 H104       28.9225   26.7509   -0.4400 H         1 UNK         0.3013 
    105 H105       25.3481   27.3220    2.6402 H         1 UNK         0.3121 
    106 H106       25.3294   28.9089    5.0323 H         1 UNK         0.0774 
    107 H107       23.6784   29.2005    2.4743 H         1 UNK         0.0815 
    108 H108       23.3302   29.9493    4.0228 H         1 UNK         0.0815 
    109 H109       23.2548   28.2021    3.8622 H         1 UNK         0.0815 
    110 H110       26.7410   29.4905    1.8412 H         1 UNK         0.2987 
    111 H111       27.4566   32.2878    2.6671 H         1 UNK         0.0949 
    112 H112       25.7963   32.2377    0.7790 H         1 UNK         0.0806 
    113 H113       26.8985   31.2297   -0.1558 H         1 UNK         0.0806 
    114 H114       27.3514   32.8730    0.2710 H         1 UNK         0.0806 
    115 H115       28.7364   29.4715    2.9026 H         1 UNK         0.3010 
    116 H116       30.9626   29.3268    1.1390 H         1 UNK         0.0829 
    117 H117       31.6792   27.5098    2.7211 H         1 UNK         0.0813 
    118 H118       29.9893   27.3611    2.2429 H         1 UNK         0.0813 
    119 H119       30.4022   27.9871    3.8298 H         1 UNK         0.0813 
    120 H120       32.3303   31.0658    1.0834 H         1 UNK         0.3038 
    121 H121       33.4123   32.4269    3.3530 H         1 UNK         0.0769 
    122 H122       34.4787   32.1862    0.4839 H         1 UNK         0.0811 
    123 H123       35.0100   33.3629    1.6772 H         1 UNK         0.0811 
    124 H124       33.3630   33.4199    1.0726 H         1 UNK         0.0811 
    125 H125       34.2375   29.4192    1.8343 H         1 UNK         0.3204 
    126 H126       36.9145   29.0286    2.5789 H         1 UNK         0.0748 
    127 H127       36.3520   26.6021    2.2254 H         1 UNK         0.0771 
    128 H128       34.6400   26.9994    2.2071 H         1 UNK         0.0771 
    129 H129       35.7058   27.6051    0.9393 H         1 UNK         0.0771 
    130 H130       34.0882   29.0100    4.6502 H         1 UNK         0.2980 
    131 H131       35.2482   27.4225    6.7675 H         1 UNK         0.0545 
    132 H132       36.6997   31.1518    7.3067 H         1 UNK         0.3459 
    133 H133       35.9834   30.6845    5.7822 H         1 UNK         0.3459 
    134 H134       32.9398   29.3832    7.0751 H         1 UNK         0.0616 
    135 H135       33.3115   28.0081    8.0814 H         1 UNK         0.0616 
    136 H136       33.1146   25.3078    6.8889 H         1 UNK         0.0634 
    137 H137       34.0074   25.9004    5.5044 H         1 UNK         0.0634 
@<TRIPOS>BOND
     1    1    2 1    
     2    1   72 1    
     3    1   73 1    
     4    1   74 1    
     5    2    3 2    
     6    2    4 am   BACKBONE|DICT|INTERRES
     7    4    5 1    
     8    4   75 1    
     9    5    6 1    
    10    5   35 1    
    11    5   76 1    
    12    6    7 1    
    13    6   77 1    
    14    6   78 1    
    15    7    8 1    
    16    8    9 1    
    17    8   79 1    
    18    8   80 1    
    19    9   10 ar   
    20    9   14 ar   
    21   10   11 ar   
    22   10   81 1    
    23   11   12 ar   
    24   11   71 1    
    25   12   13 ar   
    26   12   82 1    
    27   13   14 ar   
    28   13   15 1    
    29   14   83 1    
    30   15   16 1    
    31   15   84 1    
    32   15   85 1    
    33   16   17 1    
    34   17   18 1    
    35   17   86 1    
    36   17   87 1    
    37   18   19 1    
    38   18   37 1    
    39   18   88 1    
    40   19   20 am   BACKBONE|DICT|INTERRES
    41   19   89 1    
    42   20   21 2    
    43   20   22 1    
    44   22   23 1    
    45   22   24 1    
    46   22   90 1    
    47   23   91 1    
    48   23   92 1    
    49   23   93 1    
    50   24   25 am   BACKBONE|DICT|INTERRES
    51   24   94 1    
    52   25   26 2    
    53   25   27 1    
    54   27   28 1    
    55   27   29 1    
    56   27   95 1    
    57   28   96 1    
    58   28   97 1    
    59   28   98 1    
    60   29   30 am   BACKBONE|DICT|INTERRES
    61   29   99 1    
    62   30   31 2    
    63   30   32 1    
    64   32   33 1    
    65   32   34 1    
    66   32  100 1    
    67   33  101 1    
    68   33  102 1    
    69   33  103 1    
    70   34   35 am   BACKBONE|DICT|INTERRES
    71   34  104 1    
    72   35   36 2    
    73   37   38 2    
    74   37   39 am   BACKBONE|DICT|INTERRES
    75   39   40 1    
    76   39  105 1    
    77   40   41 1    
    78   40   42 1    
    79   40  106 1    
    80   41  107 1    
    81   41  108 1    
    82   41  109 1    
    83   42   43 2    
    84   42   44 am   BACKBONE|DICT|INTERRES
    85   44   45 1    
    86   44  110 1    
    87   45   46 1    
    88   45   47 1    
    89   45  111 1    
    90   46  112 1    
    91   46  113 1    
    92   46  114 1    
    93   47   48 2    
    94   47   49 am   BACKBONE|DICT|INTERRES
    95   49   50 1    
    96   49  115 1    
    97   50   51 1    
    98   50   52 1    
    99   50  116 1    
   100   51  117 1    
   101   51  118 1    
   102   51  119 1    
   103   52   53 2    
   104   52   54 am   BACKBONE|DICT|INTERRES
   105   54   55 1    
   106   54  120 1    
   107   55   56 1    
   108   55   57 1    
   109   55  121 1    
   110   56  122 1    
   111   56  123 1    
   112   56  124 1    
   113   57   58 2    
   114   57   59 am   BACKBONE|DICT|INTERRES
   115   59   60 1    
   116   59  125 1    
   117   60   61 1    
   118   60   62 1    
   119   60  126 1    
   120   61  127 1    
   121   61  128 1    
   122   61  129 1    
   123   62   63 2    
   124   62   64 am   BACKBONE|DICT|INTERRES
   125   64   65 1    
   126   64  130 1    
   127   65   66 1    
   128   65   69 1    
   129   65  131 1    
   130   66   67 am   BACKBONE|DICT|INTERRES
   131   66   68 2    
   132   67  132 1    
   133   67  133 1    
   134   69   70 1    
   135   69  134 1    
   136   69  135 1    
   137   70   71 1    
   138   71  136 1    
   139   71  137 1    
@<TRIPOS>SUBSTRUCTURE
     1 UNK         1 GROUP             0       ****    0 ROOT    
