@<TRIPOS>MOLECULE
3R136
137   139    1
SMALL
USER_CHARGES


@<TRIPOS>ATOM
      1 CA         31.0381   20.3477   -2.1776 C.3       0 UNK        -0.1979 
      2 C          31.0434   21.8510   -2.4139 C.2       0 UNK         0.4864 
      3 O          31.5260   22.3051   -3.4529 O.2       0 UNK        -0.5359 
      4 N          30.5169   22.6242   -1.4561 N.am      1 UNK        -0.4318 
      5 CA         30.3828   24.0816   -1.5399 C.3       1 UNK         0.0824 
      6 C6         30.1915   24.7195   -0.1400 C.3       12 UNK        -0.0944 
      7 S7         31.7547   24.7336    0.7966 S.3       12 UNK        -0.2672 
      8 C8         31.5881   23.2866    1.8928 C.3       12 UNK         0.0333 
      9 C9         31.2957   23.6716    3.3385 C.ar      12 UNK        -0.0807 
     10 C10        32.1914   24.4842    4.0410 C.ar      12 UNK        -0.0894 
     11 C11        31.9785   24.7873    5.3884 C.ar      12 UNK        -0.0804 
     12 C12        30.8604   24.2600    6.0403 C.ar      12 UNK        -0.0824 
     13 C13        29.9554   23.4459    5.3520 C.ar      12 UNK        -0.0762 
     14 C14        30.1737   23.1605    3.9994 C.ar      12 UNK        -0.0782 
     15 C15        28.7639   22.8416    6.0813 C.3       12 UNK         0.0230 
     16 S16        27.1986   23.6542    5.6362 S.3       12 UNK        -0.2608 
     17 C17        27.4401   25.3392    6.2985 C.3       12 UNK        -0.0989 
     18 CA         27.7144   26.3764    5.1811 C.3       5 UNK         0.0716 
     19 N          26.6518   26.3766    4.1719 N.am      5 UNK        -0.4135 
     20 C          26.5752   27.1688    3.0963 C.2       4 UNK         0.5031 
     21 O          27.4112   28.0319    2.8102 O.2       4 UNK        -0.5229 
     22 CA         25.3203   26.9732    2.2239 C.3       4 UNK         0.0329 
     23 CB         24.0961   27.6341    2.8814 C.3       4 UNK        -0.2001 
     24 N          25.4683   27.4991    0.8648 N.am      4 UNK        -0.4303 
     25 C          26.3581   27.0593   -0.0331 C.2       3 UNK         0.5044 
     26 O          27.1405   26.1266    0.1719 O.2       3 UNK        -0.5152 
     27 CA         26.3628   27.7759   -1.3914 C.3       3 UNK         0.0319 
     28 CB         26.6624   29.2807   -1.2532 C.3       3 UNK        -0.2001 
     29 N          27.3817   27.1559   -2.2309 N.am      3 UNK        -0.4354 
     30 C          27.2783   26.8758   -3.5332 C.2       2 UNK         0.4964 
     31 O          26.3100   27.1921   -4.2258 O.2       2 UNK        -0.5047 
     32 CA         28.4555   26.1237   -4.1856 C.3       2 UNK         0.0288 
     33 CB         29.2045   27.0452   -5.1637 C.3       2 UNK        -0.2113 
     34 N          29.4202   25.5762   -3.2231 N.am      2 UNK        -0.4145 
     35 C          29.2340   24.4656   -2.4950 C.2       1 UNK         0.5006 
     36 O          28.2119   23.7758   -2.5439 O.2       1 UNK        -0.5103 
     37 C          27.9061   27.7849    5.7776 C.2       5 UNK         0.5055 
     38 O          26.9670   28.3241    6.3668 O.2       5 UNK        -0.5220 
     39 N          29.0977   28.3568    5.5645 N.am      6 UNK        -0.4450 
     40 CA         29.5304   29.7106    5.9319 C.3       6 UNK         0.0367 
     41 CB         29.4381   29.9452    7.4543 C.3       6 UNK        -0.1929 
     42 C          28.8847   30.8579    5.1255 C.2       6 UNK         0.5070 
     43 O          29.2554   32.0119    5.3462 O.2       6 UNK        -0.5237 
     44 N          27.9743   30.5524    4.1891 N.am      7 UNK        -0.4739 
     45 CA         27.4960   31.4939    3.1700 C.3       7 UNK         0.0276 
     46 CB         26.0520   31.1475    2.7737 C.3       7 UNK        -0.1927 
     47 C          28.4165   31.4675    1.9377 C.2       7 UNK         0.5013 
     48 O          28.5612   32.4889    1.2643 O.2       7 UNK        -0.5193 
     49 N          29.0294   30.3033    1.6807 N.am      8 UNK        -0.4253 
     50 CA         30.1003   30.0876    0.7088 C.3       8 UNK         0.0242 
     51 CB         30.3142   28.5690    0.5688 C.3       8 UNK        -0.2000 
     52 C          31.4130   30.7860    1.1165 C.2       8 UNK         0.4948 
     53 O          31.5431   31.2772    2.2403 O.2       8 UNK        -0.5275 
     54 N          32.3855   30.7880    0.1930 N.am      9 UNK        -0.4246 
     55 CA         33.7334   31.3304    0.4061 C.3       9 UNK         0.0261 
     56 CB         34.4979   31.3407   -0.9277 C.3       9 UNK        -0.1959 
     57 C          34.5377   30.5785    1.4844 C.2       9 UNK         0.5033 
     58 O          35.3656   31.1938    2.1583 O.2       9 UNK        -0.5390 
     59 N          34.2720   29.2748    1.6407 N.am      10 UNK        -0.4215 
     60 CA         34.7791   28.4531    2.7368 C.3       10 UNK         0.0240 
     61 CB         34.6942   26.9714    2.3405 C.3       10 UNK        -0.1982 
     62 C          33.9604   28.7282    4.0075 C.2       10 UNK         0.4970 
     63 O          32.7310   28.7081    3.9404 O.2       10 UNK        -0.4916 
     64 N          34.6668   28.9844    5.1160 N.am      11 UNK        -0.4279 
     65 CA         34.1776   29.3151    6.4703 C.3       11 UNK         0.1003 
     66 C          33.2218   30.5397    6.6237 C.2       11 UNK         0.5709 
     67 N          32.8841   31.2727    5.5710 N.am      11 UNK        -0.7358 
     68 O          32.8215   30.8682    7.7378 O.2       11 UNK        -0.4999 
     69 C69        33.7530   28.0721    7.3100 C.3       12 UNK        -0.0954 
     70 S70        32.2544   27.1973    6.7428 S.3       12 UNK        -0.2268 
     71 C71        32.9839   25.6410    6.1480 C.3       12 UNK         0.0203 
     72 H72        30.5995   20.0875   -1.2144 H         1 UNK         0.0888 
     73 H73        30.4645   19.8477   -2.9576 H         1 UNK         0.0888 
     74 H74        32.0564   19.9606   -2.2015 H         1 UNK         0.0888 
     75 H75        30.0958   22.1924   -0.6474 H         1 UNK         0.3017 
     76 H76        31.3068   24.4752   -1.9707 H         1 UNK         0.0873 
     77 H77        29.8781   25.7601   -0.2300 H         1 UNK         0.0745 
     78 H78        29.4037   24.2210    0.4281 H         1 UNK         0.0745 
     79 H79        30.8281   22.6069    1.5062 H         1 UNK         0.0705 
     80 H80        32.5266   22.7311    1.8691 H         1 UNK         0.0705 
     81 H81        33.0681   24.8640    3.5369 H         1 UNK         0.1334 
     82 H82        30.7043   24.4781    7.0881 H         1 UNK         0.1417 
     83 H83        29.4794   22.5205    3.4719 H         1 UNK         0.1562 
     84 H84        28.9018   22.8903    7.1627 H         1 UNK         0.0748 
     85 H85        28.6913   21.7815    5.8340 H         1 UNK         0.0748 
     86 H86        28.2536   25.3336    7.0261 H         1 UNK         0.0940 
     87 H87        26.5422   25.6086    6.8586 H         1 UNK         0.0940 
     88 H88        28.6348   26.0868    4.6686 H         1 UNK         0.0703 
     89 H89        25.9150   25.7054    4.3297 H         1 UNK         0.3081 
     90 H90        25.1343   25.9003    2.1397 H         1 UNK         0.0719 
     91 H91        24.2213   28.7122    2.9825 H         1 UNK         0.0809 
     92 H92        23.1896   27.4549    2.3029 H         1 UNK         0.0809 
     93 H93        23.9199   27.2352    3.8812 H         1 UNK         0.0809 
     94 H94        24.8742   28.2757    0.6163 H         1 UNK         0.2990 
     95 H95        25.3764   27.6395   -1.8397 H         1 UNK         0.0690 
     96 H96        26.7102   29.7644   -2.2290 H         1 UNK         0.0788 
     97 H97        27.6117   29.4557   -0.7491 H         1 UNK         0.0788 
     98 H98        25.8897   29.7935   -0.6801 H         1 UNK         0.0788 
     99 H99        28.1590   26.7673   -1.7154 H         1 UNK         0.2993 
    100 H100       28.0287   25.2951   -4.7554 H         1 UNK         0.0949 
    101 H101       29.9971   26.5093   -5.6865 H         1 UNK         0.0767 
    102 H102       28.5294   27.4408   -5.9241 H         1 UNK         0.0767 
    103 H103       29.6537   27.8976   -4.6523 H         1 UNK         0.0767 
    104 H104       30.2888   26.0829   -3.1261 H         1 UNK         0.3013 
    105 H105       29.7909   27.8272    5.0518 H         1 UNK         0.3121 
    106 H106       30.5859   29.7371    5.6637 H         1 UNK         0.0774 
    107 H107       29.9142   30.8867    7.7306 H         1 UNK         0.0815 
    108 H108       28.4056   29.9929    7.7999 H         1 UNK         0.0815 
    109 H109       29.9467   29.1559    8.0078 H         1 UNK         0.0815 
    110 H110       27.7272   29.5783    4.0483 H         1 UNK         0.2987 
    111 H111       27.5025   32.5081    3.5754 H         1 UNK         0.0949 
    112 H112       25.9934   30.1939    2.2502 H         1 UNK         0.0806 
    113 H113       25.3996   31.0970    3.6455 H         1 UNK         0.0806 
    114 H114       25.6439   31.9061    2.1046 H         1 UNK         0.0806 
    115 H115       28.7859   29.5107    2.2630 H         1 UNK         0.3010 
    116 H116       29.7782   30.4982   -0.2501 H         1 UNK         0.0829 
    117 H117       29.3797   28.0586    0.3364 H         1 UNK         0.0813 
    118 H118       31.0172   28.3328   -0.2304 H         1 UNK         0.0813 
    119 H119       30.7058   28.1319    1.4893 H         1 UNK         0.0813 
    120 H120       32.2006   30.3789   -0.7119 H         1 UNK         0.3038 
    121 H121       33.6241   32.3630    0.7446 H         1 UNK         0.0769 
    122 H122       33.9853   31.9463   -1.6754 H         1 UNK         0.0811 
    123 H123       34.6197   30.3355   -1.3332 H         1 UNK         0.0811 
    124 H124       35.4958   31.7634   -0.8011 H         1 UNK         0.0811 
    125 H125       33.5404   28.8693    1.0769 H         1 UNK         0.3204 
    126 H126       35.8279   28.7028    2.9129 H         1 UNK         0.0748 
    127 H127       35.2883   26.7629    1.4505 H         1 UNK         0.0771 
    128 H128       35.0699   26.3309    3.1393 H         1 UNK         0.0771 
    129 H129       33.6661   26.6727    2.1336 H         1 UNK         0.0771 
    130 H130       35.6724   29.0007    5.0285 H         1 UNK         0.2980 
    131 H131       35.0831   29.6796    6.9568 H         1 UNK         0.0545 
    132 H132       33.1334   30.9734    4.6406 H         1 UNK         0.3459 
    133 H133       32.2722   32.0629    5.6973 H         1 UNK         0.3459 
    134 H134       33.5865   28.3625    8.3486 H         1 UNK         0.0616 
    135 H135       34.5840   27.3666    7.3483 H         1 UNK         0.0616 
    136 H136       33.3683   25.0763    6.9985 H         1 UNK         0.0634 
    137 H137       33.8411   25.8734    5.5143 H         1 UNK         0.0634 
@<TRIPOS>BOND
     1    1    2 1    
     2    1   72 1    
     3    1   73 1    
     4    1   74 1    
     5    2    3 2    
     6    2    4 am   BACKBONE|DICT|INTERRES
     7    4    5 1    
     8    4   75 1    
     9    5    6 1    
    10    5   35 1    
    11    5   76 1    
    12    6    7 1    
    13    6   77 1    
    14    6   78 1    
    15    7    8 1    
    16    8    9 1    
    17    8   79 1    
    18    8   80 1    
    19    9   10 ar   
    20    9   14 ar   
    21   10   11 ar   
    22   10   81 1    
    23   11   12 ar   
    24   11   71 1    
    25   12   13 ar   
    26   12   82 1    
    27   13   14 ar   
    28   13   15 1    
    29   14   83 1    
    30   15   16 1    
    31   15   84 1    
    32   15   85 1    
    33   16   17 1    
    34   17   18 1    
    35   17   86 1    
    36   17   87 1    
    37   18   19 1    
    38   18   37 1    
    39   18   88 1    
    40   19   20 am   BACKBONE|DICT|INTERRES
    41   19   89 1    
    42   20   21 2    
    43   20   22 1    
    44   22   23 1    
    45   22   24 1    
    46   22   90 1    
    47   23   91 1    
    48   23   92 1    
    49   23   93 1    
    50   24   25 am   BACKBONE|DICT|INTERRES
    51   24   94 1    
    52   25   26 2    
    53   25   27 1    
    54   27   28 1    
    55   27   29 1    
    56   27   95 1    
    57   28   96 1    
    58   28   97 1    
    59   28   98 1    
    60   29   30 am   BACKBONE|DICT|INTERRES
    61   29   99 1    
    62   30   31 2    
    63   30   32 1    
    64   32   33 1    
    65   32   34 1    
    66   32  100 1    
    67   33  101 1    
    68   33  102 1    
    69   33  103 1    
    70   34   35 am   BACKBONE|DICT|INTERRES
    71   34  104 1    
    72   35   36 2    
    73   37   38 2    
    74   37   39 am   BACKBONE|DICT|INTERRES
    75   39   40 1    
    76   39  105 1    
    77   40   41 1    
    78   40   42 1    
    79   40  106 1    
    80   41  107 1    
    81   41  108 1    
    82   41  109 1    
    83   42   43 2    
    84   42   44 am   BACKBONE|DICT|INTERRES
    85   44   45 1    
    86   44  110 1    
    87   45   46 1    
    88   45   47 1    
    89   45  111 1    
    90   46  112 1    
    91   46  113 1    
    92   46  114 1    
    93   47   48 2    
    94   47   49 am   BACKBONE|DICT|INTERRES
    95   49   50 1    
    96   49  115 1    
    97   50   51 1    
    98   50   52 1    
    99   50  116 1    
   100   51  117 1    
   101   51  118 1    
   102   51  119 1    
   103   52   53 2    
   104   52   54 am   BACKBONE|DICT|INTERRES
   105   54   55 1    
   106   54  120 1    
   107   55   56 1    
   108   55   57 1    
   109   55  121 1    
   110   56  122 1    
   111   56  123 1    
   112   56  124 1    
   113   57   58 2    
   114   57   59 am   BACKBONE|DICT|INTERRES
   115   59   60 1    
   116   59  125 1    
   117   60   61 1    
   118   60   62 1    
   119   60  126 1    
   120   61  127 1    
   121   61  128 1    
   122   61  129 1    
   123   62   63 2    
   124   62   64 am   BACKBONE|DICT|INTERRES
   125   64   65 1    
   126   64  130 1    
   127   65   66 1    
   128   65   69 1    
   129   65  131 1    
   130   66   67 am   BACKBONE|DICT|INTERRES
   131   66   68 2    
   132   67  132 1    
   133   67  133 1    
   134   69   70 1    
   135   69  134 1    
   136   69  135 1    
   137   70   71 1    
   138   71  136 1    
   139   71  137 1    
@<TRIPOS>SUBSTRUCTURE
     1 UNK         1 GROUP             0       ****    0 ROOT    
