@<TRIPOS>MOLECULE
3R136
137   139    1
SMALL
USER_CHARGES


@<TRIPOS>ATOM
      1 CA         30.5131   26.4395   -2.6683 C.3       0 UNK        -0.1979 
      2 C          29.7596   26.1494   -1.3810 C.2       0 UNK         0.4864 
      3 O          28.8172   26.8695   -1.0460 O.2       0 UNK        -0.5359 
      4 N          30.1639   25.1064   -0.6431 N.am      1 UNK        -0.4318 
      5 CA         29.4822   24.6781    0.5835 C.3       1 UNK         0.0824 
      6 C6         30.3373   23.7492    1.4858 C.3       12 UNK        -0.0944 
      7 S7         32.0446   24.3171    1.8056 S.3       12 UNK        -0.2672 
      8 C8         31.8285   25.9822    2.5079 C.3       12 UNK         0.0333 
      9 C9         31.1861   25.9689    3.8864 C.ar      12 UNK        -0.0807 
     10 C10        31.9688   25.8281    5.0359 C.ar      12 UNK        -0.0894 
     11 C11        31.3812   25.8767    6.3061 C.ar      12 UNK        -0.0804 
     12 C12        29.9961   26.0491    6.4173 C.ar      12 UNK        -0.0824 
     13 C13        29.2036   26.1737    5.2727 C.ar      12 UNK        -0.0762 
     14 C14        29.8077   26.1411    4.0165 C.ar      12 UNK        -0.0782 
     15 C15        27.6953   26.3401    5.3721 C.3       12 UNK         0.0230 
     16 S16        27.1921   28.0036    4.8326 S.3       12 UNK        -0.2608 
     17 C17        25.8682   27.6515    3.6253 C.3       12 UNK        -0.0989 
     18 CA         26.3626   27.5644    2.1498 C.3       5 UNK         0.0716 
     19 N          25.4326   26.8067    1.3046 N.am      5 UNK        -0.4135 
     20 C          24.1729   27.1658    1.0061 C.2       4 UNK         0.5031 
     21 O          23.6366   28.1952    1.4214 O.2       4 UNK        -0.5229 
     22 CA         23.3724   26.2030    0.1048 C.3       4 UNK         0.0329 
     23 CB         22.0420   26.8087   -0.3922 C.3       4 UNK        -0.2001 
     24 N          24.1491   25.6818   -1.0245 N.am      4 UNK        -0.4303 
     25 C          24.7706   26.3763   -1.9886 C.2       3 UNK         0.5044 
     26 O          24.7537   27.6048   -2.0639 O.2       3 UNK        -0.5152 
     27 CA         25.5518   25.5516   -3.0356 C.3       3 UNK         0.0319 
     28 CB         26.4558   26.4287   -3.9228 C.3       3 UNK        -0.2001 
     29 N          26.3732   24.5031   -2.4228 N.am      3 UNK        -0.4354 
     30 C          25.9287   23.3321   -1.9438 C.2       2 UNK         0.4964 
     31 O          24.7501   22.9810   -2.0010 O.2       2 UNK        -0.5047 
     32 CA         26.9477   22.4195   -1.2399 C.3       2 UNK         0.0288 
     33 CB         27.4040   21.2962   -2.1850 C.3       2 UNK        -0.2113 
     34 N          28.1256   23.1287   -0.7327 N.am      2 UNK        -0.4145 
     35 C          28.1224   24.0309    0.2613 C.2       1 UNK         0.5006 
     36 O          27.1107   24.3894    0.8685 O.2       1 UNK        -0.5103 
     37 C          26.7233   28.9300    1.5138 C.2       5 UNK         0.5055 
     38 O          26.6067   29.9699    2.1651 O.2       5 UNK        -0.5220 
     39 N          27.1388   28.9134    0.2376 N.am      6 UNK        -0.4450 
     40 CA         27.5581   30.1132   -0.4928 C.3       6 UNK         0.0367 
     41 CB         27.4796   29.8717   -2.0091 C.3       6 UNK        -0.1929 
     42 C          28.9716   30.5520   -0.0868 C.2       6 UNK         0.5070 
     43 O          29.1968   31.7378    0.1531 O.2       6 UNK        -0.5237 
     44 N          29.8926   29.5851    0.0195 N.am      7 UNK        -0.4739 
     45 CA         31.2914   29.7997    0.4071 C.3       7 UNK         0.0276 
     46 CB         32.1915   28.8335   -0.3859 C.3       7 UNK        -0.1927 
     47 C          31.4986   29.6790    1.9290 C.2       7 UNK         0.5013 
     48 O          32.5070   29.1223    2.3617 O.2       7 UNK        -0.5193 
     49 N          30.5515   30.2036    2.7200 N.am      8 UNK        -0.4253 
     50 CA         30.4770   30.1018    4.1855 C.3       8 UNK         0.0242 
     51 CB         29.2835   30.9377    4.6758 C.3       8 UNK        -0.2000 
     52 C          31.7461   30.5230    4.9509 C.2       8 UNK         0.4948 
     53 O          32.0023   29.9979    6.0336 O.2       8 UNK        -0.5275 
     54 N          32.5133   31.4620    4.3830 N.am      9 UNK        -0.4246 
     55 CA         33.7692   31.9599    4.9427 C.3       9 UNK         0.0261 
     56 CB         34.0791   33.3311    4.3194 C.3       9 UNK        -0.1959 
     57 C          34.9641   31.0065    4.7528 C.2       9 UNK         0.5033 
     58 O          35.9747   31.1967    5.4318 O.2       9 UNK        -0.5390 
     59 N          34.8672   30.0231    3.8420 N.am      10 UNK        -0.4215 
     60 CA         35.9864   29.1593    3.4414 C.3       10 UNK         0.0240 
     61 CB         35.5883   28.3164    2.2203 C.3       10 UNK        -0.1982 
     62 C          36.5371   28.2590    4.5607 C.2       10 UNK         0.4970 
     63 O          37.7214   27.9221    4.5205 O.2       10 UNK        -0.4916 
     64 N          35.6927   27.9021    5.5369 N.am      11 UNK        -0.4279 
     65 CA         36.0978   27.1855    6.7552 C.3       11 UNK         0.1003 
     66 C          36.6963   28.0940    7.8717 C.2       11 UNK         0.5709 
     67 N          36.7804   29.4093    7.7013 N.am      11 UNK        -0.7358 
     68 O          37.1170   27.5904    8.9109 O.2       11 UNK        -0.4999 
     69 C69        34.9810   26.2401    7.2696 C.3       12 UNK        -0.0954 
     70 S70        33.4341   27.0817    7.7505 S.3       12 UNK        -0.2268 
     71 C71        32.2310   25.7262    7.5614 C.3       12 UNK         0.0203 
     72 H72        29.9622   26.0436   -3.5208 H         1 UNK         0.0888 
     73 H73        30.6230   27.5142   -2.8074 H         1 UNK         0.0888 
     74 H74        31.5080   25.9946   -2.6623 H         1 UNK         0.0888 
     75 H75        30.9683   24.5631   -0.9243 H         1 UNK         0.3017 
     76 H76        29.2569   25.5818    1.1446 H         1 UNK         0.0873 
     77 H77        29.8441   23.6022    2.4487 H         1 UNK         0.0745 
     78 H78        30.4185   22.7557    1.0404 H         1 UNK         0.0745 
     79 H79        32.8097   26.4501    2.5760 H         1 UNK         0.0705 
     80 H80        31.2525   26.6033    1.8226 H         1 UNK         0.0705 
     81 H81        33.0372   25.6977    4.9399 H         1 UNK         0.1334 
     82 H82        29.5335   26.0822    7.3943 H         1 UNK         0.1417 
     83 H83        29.1921   26.2710    3.1440 H         1 UNK         0.1562 
     84 H84        27.3496   26.1786    6.3942 H         1 UNK         0.0748 
     85 H85        27.2167   25.5743    4.7600 H         1 UNK         0.0748 
     86 H86        25.0976   28.4178    3.7281 H         1 UNK         0.0940 
     87 H87        25.3808   26.7193    3.9148 H         1 UNK         0.0940 
     88 H88        27.2823   26.9810    2.1425 H         1 UNK         0.0703 
     89 H89        25.7962   25.9326    0.9369 H         1 UNK         0.3081 
     90 H90        23.1278   25.3421    0.7287 H         1 UNK         0.0719 
     91 H91        21.4018   27.0895    0.4451 H         1 UNK         0.0809 
     92 H92        22.2054   27.7051   -0.9915 H         1 UNK         0.0809 
     93 H93        21.4837   26.0964   -0.9996 H         1 UNK         0.0809 
     94 H94        24.2179   24.6706   -1.0851 H         1 UNK         0.2990 
     95 H95        24.8103   25.0781   -3.6825 H         1 UNK         0.0690 
     96 H96        27.2084   26.9541   -3.3342 H         1 UNK         0.0788 
     97 H97        25.8729   27.1825   -4.4537 H         1 UNK         0.0788 
     98 H98        26.9727   25.8337   -4.6758 H         1 UNK         0.0788 
     99 H99        27.3477   24.7271   -2.2893 H         1 UNK         0.2993 
    100 H100       26.4380   21.9664   -0.3865 H         1 UNK         0.0949 
    101 H101       26.5500   20.7286   -2.5580 H         1 UNK         0.0767 
    102 H102       27.9380   21.6884   -3.0516 H         1 UNK         0.0767 
    103 H103       28.0605   20.5904   -1.6755 H         1 UNK         0.0767 
    104 H104       29.0053   22.9133   -1.1789 H         1 UNK         0.3013 
    105 H105       27.2690   28.0278   -0.2401 H         1 UNK         0.3121 
    106 H106       26.8712   30.9274   -0.2511 H         1 UNK         0.0774 
    107 H107       28.1402   29.0675   -2.3322 H         1 UNK         0.0815 
    108 H108       27.7680   30.7680   -2.5598 H         1 UNK         0.0815 
    109 H109       26.4660   29.6180   -2.3176 H         1 UNK         0.0815 
    110 H110       29.6078   28.6337   -0.1861 H         1 UNK         0.2987 
    111 H111       31.5906   30.8144    0.1352 H         1 UNK         0.0949 
    112 H112       31.9872   27.7918   -0.1407 H         1 UNK         0.0806 
    113 H113       32.0598   28.9625   -1.4597 H         1 UNK         0.0806 
    114 H114       33.2455   29.0153   -0.1726 H         1 UNK         0.0806 
    115 H115       29.7752   30.6649    2.2652 H         1 UNK         0.3010 
    116 H116       30.2887   29.0531    4.4242 H         1 UNK         0.0829 
    117 H117       29.1316   30.8072    5.7482 H         1 UNK         0.0813 
    118 H118       29.4333   32.0024    4.4926 H         1 UNK         0.0813 
    119 H119       28.3578   30.6439    4.1821 H         1 UNK         0.0813 
    120 H120       32.2250   31.8407    3.4927 H         1 UNK         0.3038 
    121 H121       33.6362   32.0993    6.0179 H         1 UNK         0.0769 
    122 H122       34.2208   33.2623    3.2400 H         1 UNK         0.0811 
    123 H123       34.9921   33.7546    4.7408 H         1 UNK         0.0811 
    124 H124       33.2772   34.0448    4.5095 H         1 UNK         0.0811 
    125 H125       33.9862   29.8758    3.3540 H         1 UNK         0.3204 
    126 H126       36.8023   29.8180    3.1364 H         1 UNK         0.0748 
    127 H127       36.4317   27.7255    1.8604 H         1 UNK         0.0771 
    128 H128       34.7838   27.6221    2.4587 H         1 UNK         0.0771 
    129 H129       35.2569   28.9447    1.3936 H         1 UNK         0.0771 
    130 H130       34.7408   28.2387    5.5147 H         1 UNK         0.2980 
    131 H131       36.9242   26.5271    6.4812 H         1 UNK         0.0545 
    132 H132       37.1794   29.9704    8.4365 H         1 UNK         0.3459 
    133 H133       36.4640   29.8564    6.8478 H         1 UNK         0.3459 
    134 H134       34.7588   25.5062    6.4944 H         1 UNK         0.0616 
    135 H135       35.3339   25.6606    8.1245 H         1 UNK         0.0616 
    136 H136       31.5982   25.7142    8.4500 H         1 UNK         0.0634 
    137 H137       32.7396   24.7614    7.5439 H         1 UNK         0.0634 
@<TRIPOS>BOND
     1    1    2 1    
     2    1   72 1    
     3    1   73 1    
     4    1   74 1    
     5    2    3 2    
     6    2    4 am   BACKBONE|DICT|INTERRES
     7    4    5 1    
     8    4   75 1    
     9    5    6 1    
    10    5   35 1    
    11    5   76 1    
    12    6    7 1    
    13    6   77 1    
    14    6   78 1    
    15    7    8 1    
    16    8    9 1    
    17    8   79 1    
    18    8   80 1    
    19    9   10 ar   
    20    9   14 ar   
    21   10   11 ar   
    22   10   81 1    
    23   11   12 ar   
    24   11   71 1    
    25   12   13 ar   
    26   12   82 1    
    27   13   14 ar   
    28   13   15 1    
    29   14   83 1    
    30   15   16 1    
    31   15   84 1    
    32   15   85 1    
    33   16   17 1    
    34   17   18 1    
    35   17   86 1    
    36   17   87 1    
    37   18   19 1    
    38   18   37 1    
    39   18   88 1    
    40   19   20 am   BACKBONE|DICT|INTERRES
    41   19   89 1    
    42   20   21 2    
    43   20   22 1    
    44   22   23 1    
    45   22   24 1    
    46   22   90 1    
    47   23   91 1    
    48   23   92 1    
    49   23   93 1    
    50   24   25 am   BACKBONE|DICT|INTERRES
    51   24   94 1    
    52   25   26 2    
    53   25   27 1    
    54   27   28 1    
    55   27   29 1    
    56   27   95 1    
    57   28   96 1    
    58   28   97 1    
    59   28   98 1    
    60   29   30 am   BACKBONE|DICT|INTERRES
    61   29   99 1    
    62   30   31 2    
    63   30   32 1    
    64   32   33 1    
    65   32   34 1    
    66   32  100 1    
    67   33  101 1    
    68   33  102 1    
    69   33  103 1    
    70   34   35 am   BACKBONE|DICT|INTERRES
    71   34  104 1    
    72   35   36 2    
    73   37   38 2    
    74   37   39 am   BACKBONE|DICT|INTERRES
    75   39   40 1    
    76   39  105 1    
    77   40   41 1    
    78   40   42 1    
    79   40  106 1    
    80   41  107 1    
    81   41  108 1    
    82   41  109 1    
    83   42   43 2    
    84   42   44 am   BACKBONE|DICT|INTERRES
    85   44   45 1    
    86   44  110 1    
    87   45   46 1    
    88   45   47 1    
    89   45  111 1    
    90   46  112 1    
    91   46  113 1    
    92   46  114 1    
    93   47   48 2    
    94   47   49 am   BACKBONE|DICT|INTERRES
    95   49   50 1    
    96   49  115 1    
    97   50   51 1    
    98   50   52 1    
    99   50  116 1    
   100   51  117 1    
   101   51  118 1    
   102   51  119 1    
   103   52   53 2    
   104   52   54 am   BACKBONE|DICT|INTERRES
   105   54   55 1    
   106   54  120 1    
   107   55   56 1    
   108   55   57 1    
   109   55  121 1    
   110   56  122 1    
   111   56  123 1    
   112   56  124 1    
   113   57   58 2    
   114   57   59 am   BACKBONE|DICT|INTERRES
   115   59   60 1    
   116   59  125 1    
   117   60   61 1    
   118   60   62 1    
   119   60  126 1    
   120   61  127 1    
   121   61  128 1    
   122   61  129 1    
   123   62   63 2    
   124   62   64 am   BACKBONE|DICT|INTERRES
   125   64   65 1    
   126   64  130 1    
   127   65   66 1    
   128   65   69 1    
   129   65  131 1    
   130   66   67 am   BACKBONE|DICT|INTERRES
   131   66   68 2    
   132   67  132 1    
   133   67  133 1    
   134   69   70 1    
   135   69  134 1    
   136   69  135 1    
   137   70   71 1    
   138   71  136 1    
   139   71  137 1    
@<TRIPOS>SUBSTRUCTURE
     1 UNK         1 GROUP             0       ****    0 ROOT    
