@<TRIPOS>MOLECULE
3R136
137   139    1
SMALL
USER_CHARGES


@<TRIPOS>ATOM
      1 CA         28.1614   19.5479   -2.4875 C.3       0 UNK        -0.1979 
      2 C          28.3915   20.9921   -2.0691 C.2       0 UNK         0.4864 
      3 O          27.7671   21.8974   -2.6248 O.2       0 UNK        -0.5359 
      4 N          29.2729   21.2158   -1.0831 N.am      1 UNK        -0.4318 
      5 CA         29.6336   22.5398   -0.5558 C.3       1 UNK         0.0824 
      6 C6         30.8899   22.4816    0.3504 C.3       12 UNK        -0.0944 
      7 S7         30.6714   21.4657    1.8557 S.3       12 UNK        -0.2672 
      8 C8         31.9791   22.1172    2.9503 C.3       12 UNK         0.0333 
      9 C9         31.8297   23.6036    3.2610 C.ar      12 UNK        -0.0807 
     10 C10        32.9004   24.4750    3.0383 C.ar      12 UNK        -0.0894 
     11 C11        32.7831   25.8379    3.3285 C.ar      12 UNK        -0.0804 
     12 C12        31.5732   26.3354    3.8212 C.ar      12 UNK        -0.0824 
     13 C13        30.4910   25.4776    4.0417 C.ar      12 UNK        -0.0762 
     14 C14        30.6336   24.1101    3.7796 C.ar      12 UNK        -0.0782 
     15 C15        29.1686   26.0318    4.5553 C.3       12 UNK         0.0230 
     16 S16        27.8093   25.6466    3.4083 S.3       12 UNK        -0.2608 
     17 C17        26.7422   27.1119    3.5659 C.3       12 UNK        -0.0989 
     18 CA         27.1448   28.2251    2.5680 C.3       5 UNK         0.0716 
     19 N          27.1473   27.7534    1.1719 N.am      5 UNK        -0.4135 
     20 C          27.6476   28.4154    0.1178 C.2       4 UNK         0.5031 
     21 O          28.0404   29.5809    0.1760 O.2       4 UNK        -0.5229 
     22 CA         27.7317   27.6821   -1.2290 C.3       4 UNK         0.0329 
     23 CB         29.1926   27.3183   -1.5412 C.3       4 UNK        -0.2001 
     24 N          26.9102   26.4711   -1.2772 N.am      4 UNK        -0.4303 
     25 C          25.6159   26.4515   -1.6284 C.2       3 UNK         0.5044 
     26 O          24.9761   27.4630   -1.9184 O.2       3 UNK        -0.5152 
     27 CA         24.9071   25.0840   -1.6777 C.3       3 UNK         0.0319 
     28 CB         24.8813   24.5469   -3.1176 C.3       3 UNK        -0.2001 
     29 N          25.5098   24.0743   -0.8059 N.am      3 UNK        -0.4354 
     30 C          25.4669   24.1028    0.5336 C.2       2 UNK         0.4964 
     31 O          24.8709   24.9653    1.1791 O.2       2 UNK        -0.5047 
     32 CA         26.2417   23.0012    1.2807 C.3       2 UNK         0.0288 
     33 CB         25.3225   21.8015    1.5612 C.3       2 UNK        -0.2113 
     34 N          27.4531   22.5264    0.6014 N.am      2 UNK        -0.4145 
     35 C          28.4618   23.2788    0.1296 C.2       1 UNK         0.5006 
     36 O          28.4801   24.5084    0.1779 O.2       1 UNK        -0.5103 
     37 C          26.3324   29.5139    2.8283 C.2       5 UNK         0.5055 
     38 O          26.4360   30.0779    3.9185 O.2       5 UNK        -0.5220 
     39 N          25.5638   29.9828    1.8353 N.am      6 UNK        -0.4450 
     40 CA         24.9508   31.3121    1.8175 C.3       6 UNK         0.0367 
     41 CB         23.9541   31.3898    0.6499 C.3       6 UNK        -0.1929 
     42 C          25.9856   32.4529    1.7187 C.2       6 UNK         0.5070 
     43 O          25.6815   33.5671    2.1462 O.2       6 UNK        -0.5237 
     44 N          27.1724   32.1657    1.1634 N.am      7 UNK        -0.4739 
     45 CA         28.2819   33.1100    1.0158 C.3       7 UNK         0.0276 
     46 CB         28.4591   33.4542   -0.4725 C.3       7 UNK        -0.1927 
     47 C          29.5946   32.5653    1.6016 C.2       7 UNK         0.5013 
     48 O          30.3560   33.3447    2.1762 O.2       7 UNK        -0.5193 
     49 N          29.8576   31.2607    1.4383 N.am      8 UNK        -0.4253 
     50 CA         31.0711   30.5935    1.9109 C.3       8 UNK         0.0242 
     51 CB         31.2166   29.2350    1.2036 C.3       8 UNK        -0.2000 
     52 C          31.0509   30.4105    3.4354 C.2       8 UNK         0.4948 
     53 O          30.0963   29.8420    3.9678 O.2       8 UNK        -0.5275 
     54 N          32.1179   30.8594    4.1006 N.am      9 UNK        -0.4246 
     55 CA         32.3425   30.7521    5.5383 C.3       9 UNK         0.0261 
     56 CB         31.4511   31.7545    6.2985 C.3       9 UNK        -0.1959 
     57 C          33.8259   31.0278    5.8079 C.2       9 UNK         0.5033 
     58 O          34.4896   31.6419    4.9671 O.2       9 UNK        -0.5390 
     59 N          34.3087   30.5773    6.9755 N.am      10 UNK        -0.4215 
     60 CA         35.6753   30.7497    7.4960 C.3       10 UNK         0.0240 
     61 CB         35.9427   32.2326    7.8347 C.3       10 UNK        -0.1982 
     62 C          36.7784   30.1376    6.6042 C.2       10 UNK         0.4970 
     63 O          37.9133   30.6179    6.6163 O.2       10 UNK        -0.4916 
     64 N          36.4301   29.0841    5.8556 N.am      11 UNK        -0.4279 
     65 CA         37.3265   28.3522    4.9484 C.3       11 UNK         0.1003 
     66 C          38.3235   27.3790    5.6456 C.2       11 UNK         0.5709 
     67 N          38.2130   27.1269    6.9448 N.am      11 UNK        -0.7358 
     68 O          39.2263   26.8561    4.9962 O.2       11 UNK        -0.4999 
     69 C69        36.5322   27.6684    3.8036 C.3       12 UNK        -0.0954 
     70 S70        35.2316   26.5287    4.3905 S.3       12 UNK        -0.2268 
     71 C71        33.9665   26.7668    3.1070 C.3       12 UNK         0.0203 
     72 H72        28.4081   19.4197   -3.5410 H         1 UNK         0.0888 
     73 H73        28.7710   18.8535   -1.9095 H         1 UNK         0.0888 
     74 H74        27.1148   19.2790   -2.3471 H         1 UNK         0.0888 
     75 H75        29.7493   20.4355   -0.6520 H         1 UNK         0.3017 
     76 H76        29.8972   23.1516   -1.4215 H         1 UNK         0.0873 
     77 H77        31.7333   22.0782   -0.2120 H         1 UNK         0.0745 
     78 H78        31.1838   23.4945    0.6313 H         1 UNK         0.0745 
     79 H79        31.9604   21.5603    3.8879 H         1 UNK         0.0705 
     80 H80        32.9475   21.9123    2.4910 H         1 UNK         0.0705 
     81 H81        33.8354   24.0938    2.6504 H         1 UNK         0.1334 
     82 H82        31.4732   27.3912    4.0333 H         1 UNK         0.1417 
     83 H83        29.7998   23.4428    3.9514 H         1 UNK         0.1562 
     84 H84        29.2378   27.1127    4.6899 H         1 UNK         0.0748 
     85 H85        28.9475   25.6076    5.5354 H         1 UNK         0.0748 
     86 H86        26.7856   27.4680    4.5974 H         1 UNK         0.0940 
     87 H87        25.7096   26.8017    3.3933 H         1 UNK         0.0940 
     88 H88        28.1789   28.4942    2.7883 H         1 UNK         0.0703 
     89 H89        26.8566   26.7947    1.0373 H         1 UNK         0.3081 
     90 H90        27.3904   28.3764   -2.0000 H         1 UNK         0.0719 
     91 H91        29.6335   26.6973   -0.7604 H         1 UNK         0.0809 
     92 H92        29.2767   26.7816   -2.4861 H         1 UNK         0.0809 
     93 H93        29.8057   28.2163   -1.6248 H         1 UNK         0.0809 
     94 H94        27.3631   25.6102   -0.9828 H         1 UNK         0.2990 
     95 H95        23.8760   25.2391   -1.3529 H         1 UNK         0.0690 
     96 H96        24.4216   25.2671   -3.7962 H         1 UNK         0.0788 
     97 H97        24.3041   23.6246   -3.1869 H         1 UNK         0.0788 
     98 H98        25.8864   24.3421   -3.4895 H         1 UNK         0.0788 
     99 H99        26.0359   23.3371   -1.2566 H         1 UNK         0.2993 
    100 H100       26.5525   23.4147    2.2395 H         1 UNK         0.0949 
    101 H101       25.8174   21.0598    2.1886 H         1 UNK         0.0767 
    102 H102       24.4197   22.1158    2.0872 H         1 UNK         0.0767 
    103 H103       25.0090   21.3089    0.6398 H         1 UNK         0.0767 
    104 H104       27.5464   21.5261    0.5058 H         1 UNK         0.3013 
    105 H105       25.5252   29.4527    0.9769 H         1 UNK         0.3121 
    106 H106       24.3997   31.4460    2.7509 H         1 UNK         0.0774 
    107 H107       23.4590   32.3616    0.6247 H         1 UNK         0.0815 
    108 H108       24.4478   31.2510   -0.3129 H         1 UNK         0.0815 
    109 H109       23.1745   30.6333    0.7412 H         1 UNK         0.0815 
    110 H110       27.3405   31.2175    0.8382 H         1 UNK         0.2987 
    111 H111       28.0623   34.0354    1.5530 H         1 UNK         0.0949 
    112 H112       28.6698   32.5658   -1.0695 H         1 UNK         0.0806 
    113 H113       27.5635   33.9252   -0.8778 H         1 UNK         0.0806 
    114 H114       29.2858   34.1511   -0.6177 H         1 UNK         0.0806 
    115 H115       29.1811   30.6702    0.9586 H         1 UNK         0.3010 
    116 H116       31.9271   31.2128    1.6332 H         1 UNK         0.0829 
    117 H117       31.2089   29.3493    0.1199 H         1 UNK         0.0813 
    118 H118       32.1579   28.7549    1.4700 H         1 UNK         0.0813 
    119 H119       30.4142   28.5476    1.4749 H         1 UNK         0.0813 
    120 H120       32.8870   31.2984    3.6068 H         1 UNK         0.3038 
    121 H121       32.1110   29.7332    5.8563 H         1 UNK         0.0769 
    122 H122       31.6429   32.7805    5.9818 H         1 UNK         0.0811 
    123 H123       31.6279   31.7055    7.3735 H         1 UNK         0.0811 
    124 H124       30.3924   31.5495    6.1391 H         1 UNK         0.0811 
    125 H125       33.6756   30.0785    7.5868 H         1 UNK         0.3204 
    126 H126       35.7131   30.1915    8.4327 H         1 UNK         0.0748 
    127 H127       36.8931   32.3527    8.3564 H         1 UNK         0.0771 
    128 H128       35.9841   32.8510    6.9373 H         1 UNK         0.0771 
    129 H129       35.1669   32.6374    8.4847 H         1 UNK         0.0771 
    130 H130       35.4867   28.7317    5.9141 H         1 UNK         0.2980 
    131 H131       37.9635   29.0982    4.4692 H         1 UNK         0.0545 
    132 H132       38.8694   26.5005    7.3835 H         1 UNK         0.3459 
    133 H133       37.4760   27.5476    7.4865 H         1 UNK         0.3459 
    134 H134       36.0680   28.4413    3.1889 H         1 UNK         0.0616 
    135 H135       37.1995   27.1232    3.1335 H         1 UNK         0.0616 
    136 H136       34.4025   26.5774    2.1249 H         1 UNK         0.0634 
    137 H137       33.6461   27.8096    3.1141 H         1 UNK         0.0634 
@<TRIPOS>BOND
     1    1    2 1    
     2    1   72 1    
     3    1   73 1    
     4    1   74 1    
     5    2    3 2    
     6    2    4 am   BACKBONE|DICT|INTERRES
     7    4    5 1    
     8    4   75 1    
     9    5    6 1    
    10    5   35 1    
    11    5   76 1    
    12    6    7 1    
    13    6   77 1    
    14    6   78 1    
    15    7    8 1    
    16    8    9 1    
    17    8   79 1    
    18    8   80 1    
    19    9   10 ar   
    20    9   14 ar   
    21   10   11 ar   
    22   10   81 1    
    23   11   12 ar   
    24   11   71 1    
    25   12   13 ar   
    26   12   82 1    
    27   13   14 ar   
    28   13   15 1    
    29   14   83 1    
    30   15   16 1    
    31   15   84 1    
    32   15   85 1    
    33   16   17 1    
    34   17   18 1    
    35   17   86 1    
    36   17   87 1    
    37   18   19 1    
    38   18   37 1    
    39   18   88 1    
    40   19   20 am   BACKBONE|DICT|INTERRES
    41   19   89 1    
    42   20   21 2    
    43   20   22 1    
    44   22   23 1    
    45   22   24 1    
    46   22   90 1    
    47   23   91 1    
    48   23   92 1    
    49   23   93 1    
    50   24   25 am   BACKBONE|DICT|INTERRES
    51   24   94 1    
    52   25   26 2    
    53   25   27 1    
    54   27   28 1    
    55   27   29 1    
    56   27   95 1    
    57   28   96 1    
    58   28   97 1    
    59   28   98 1    
    60   29   30 am   BACKBONE|DICT|INTERRES
    61   29   99 1    
    62   30   31 2    
    63   30   32 1    
    64   32   33 1    
    65   32   34 1    
    66   32  100 1    
    67   33  101 1    
    68   33  102 1    
    69   33  103 1    
    70   34   35 am   BACKBONE|DICT|INTERRES
    71   34  104 1    
    72   35   36 2    
    73   37   38 2    
    74   37   39 am   BACKBONE|DICT|INTERRES
    75   39   40 1    
    76   39  105 1    
    77   40   41 1    
    78   40   42 1    
    79   40  106 1    
    80   41  107 1    
    81   41  108 1    
    82   41  109 1    
    83   42   43 2    
    84   42   44 am   BACKBONE|DICT|INTERRES
    85   44   45 1    
    86   44  110 1    
    87   45   46 1    
    88   45   47 1    
    89   45  111 1    
    90   46  112 1    
    91   46  113 1    
    92   46  114 1    
    93   47   48 2    
    94   47   49 am   BACKBONE|DICT|INTERRES
    95   49   50 1    
    96   49  115 1    
    97   50   51 1    
    98   50   52 1    
    99   50  116 1    
   100   51  117 1    
   101   51  118 1    
   102   51  119 1    
   103   52   53 2    
   104   52   54 am   BACKBONE|DICT|INTERRES
   105   54   55 1    
   106   54  120 1    
   107   55   56 1    
   108   55   57 1    
   109   55  121 1    
   110   56  122 1    
   111   56  123 1    
   112   56  124 1    
   113   57   58 2    
   114   57   59 am   BACKBONE|DICT|INTERRES
   115   59   60 1    
   116   59  125 1    
   117   60   61 1    
   118   60   62 1    
   119   60  126 1    
   120   61  127 1    
   121   61  128 1    
   122   61  129 1    
   123   62   63 2    
   124   62   64 am   BACKBONE|DICT|INTERRES
   125   64   65 1    
   126   64  130 1    
   127   65   66 1    
   128   65   69 1    
   129   65  131 1    
   130   66   67 am   BACKBONE|DICT|INTERRES
   131   66   68 2    
   132   67  132 1    
   133   67  133 1    
   134   69   70 1    
   135   69  134 1    
   136   69  135 1    
   137   70   71 1    
   138   71  136 1    
   139   71  137 1    
@<TRIPOS>SUBSTRUCTURE
     1 UNK         1 GROUP             0       ****    0 ROOT    
