@<TRIPOS>MOLECULE
3R136
137   139    1
SMALL
USER_CHARGES


@<TRIPOS>ATOM
      1 CA         36.7522   27.0323    2.1073 C.3       0 UNK        -0.1979 
      2 C          35.4196   26.4434    1.6682 C.2       0 UNK         0.4864 
      3 O          35.3716   25.2874    1.2464 O.2       0 UNK        -0.5359 
      4 N          34.3415   27.2286    1.7639 N.am      1 UNK        -0.4318 
      5 CA         32.9774   26.8387    1.4157 C.3       1 UNK         0.0824 
      6 C6         32.7308   26.9173   -0.1157 C.3       12 UNK        -0.0944 
      7 S7         31.4396   25.7877   -0.7332 S.3       12 UNK        -0.2672 
      8 C8         32.2049   24.1407   -0.5363 C.3       12 UNK         0.0333 
      9 C9         31.5086   23.3912    0.5876 C.ar      12 UNK        -0.0807 
     10 C10        32.0799   23.3122    1.8594 C.ar      12 UNK        -0.0894 
     11 C11        31.3444   22.8081    2.9345 C.ar      12 UNK        -0.0804 
     12 C12        30.0561   22.3079    2.7176 C.ar      12 UNK        -0.0824 
     13 C13        29.5009   22.3236    1.4337 C.ar      12 UNK        -0.0762 
     14 C14        30.2387   22.8533    0.3720 C.ar      12 UNK        -0.0782 
     15 C15        28.0848   21.8211    1.1962 C.3       12 UNK         0.0230 
     16 S16        26.8624   23.1595    1.3842 S.3       12 UNK        -0.2608 
     17 C17        27.2769   24.2416   -0.0289 C.3       12 UNK        -0.0989 
     18 CA         26.1092   25.1737   -0.4277 C.3       5 UNK         0.0716 
     19 N          25.7277   26.0684    0.6632 N.am      5 UNK        -0.4135 
     20 C          24.4862   26.2224    1.1425 C.2       4 UNK         0.5031 
     21 O          23.4993   25.6231    0.7128 O.2       4 UNK        -0.5229 
     22 CA         24.3047   27.2163    2.3071 C.3       4 UNK         0.0329 
     23 CB         24.3372   26.4739    3.6529 C.3       4 UNK        -0.2001 
     24 N          25.3141   28.2771    2.3209 N.am      4 UNK        -0.4303 
     25 C          25.4438   29.2146    1.3724 C.2       3 UNK         0.5044 
     26 O          24.6386   29.3726    0.4548 O.2       3 UNK        -0.5152 
     27 CA         26.6959   30.1049    1.4308 C.3       3 UNK         0.0319 
     28 CB         26.3476   31.4849    2.0101 C.3       3 UNK        -0.2001 
     29 N          27.8352   29.5465    2.1705 N.am      3 UNK        -0.4354 
     30 C          28.4663   28.3885    1.9304 C.2       2 UNK         0.4964 
     31 O          28.1347   27.5882    1.0529 O.2       2 UNK        -0.5047 
     32 CA         29.6207   28.0413    2.8733 C.3       2 UNK         0.0288 
     33 CB         29.1344   27.1379    4.0181 C.3       2 UNK        -0.2113 
     34 N          30.6901   27.3722    2.1381 N.am      2 UNK        -0.4145 
     35 C          31.9921   27.6445    2.2830 C.2       1 UNK         0.5006 
     36 O          32.4331   28.4672    3.0954 O.2       1 UNK        -0.5103 
     37 C          26.4655   25.9817   -1.6909 C.2       5 UNK         0.5055 
     38 O          26.0460   25.5874   -2.7807 O.2       5 UNK        -0.5220 
     39 N          27.2212   27.0815   -1.5457 N.am      6 UNK        -0.4450 
     40 CA         27.6630   27.9287   -2.6545 C.3       6 UNK         0.0367 
     41 CB         28.9397   27.3562   -3.3021 C.3       6 UNK        -0.1929 
     42 C          27.8276   29.3865   -2.2044 C.2       6 UNK         0.5070 
     43 O          26.9294   30.1929   -2.4455 O.2       6 UNK        -0.5237 
     44 N          28.9662   29.7139   -1.5815 N.am      7 UNK        -0.4739 
     45 CA         29.3539   31.0666   -1.1726 C.3       7 UNK         0.0276 
     46 CB         29.9622   31.8118   -2.3762 C.3       7 UNK        -0.1927 
     47 C          30.3555   30.9857   -0.0124 C.2       7 UNK         0.5013 
     48 O          30.8984   29.9086    0.2329 O.2       7 UNK        -0.5193 
     49 N          30.5941   32.1267    0.6516 N.am      8 UNK        -0.4253 
     50 CA         31.4400   32.3116    1.8428 C.3       8 UNK         0.0242 
     51 CB         32.8897   31.8277    1.6011 C.3       8 UNK        -0.2000 
     52 C          30.7937   31.7242    3.1145 C.2       8 UNK         0.4948 
     53 O          29.5763   31.5330    3.1458 O.2       8 UNK        -0.5275 
     54 N          31.5931   31.4866    4.1614 N.am      9 UNK        -0.4246 
     55 CA         31.1439   30.9595    5.4531 C.3       9 UNK         0.0261 
     56 CB         30.3795   32.0431    6.2470 C.3       9 UNK        -0.1959 
     57 C          32.3332   30.3785    6.2334 C.2       9 UNK         0.5033 
     58 O          32.5117   30.7035    7.4086 O.2       9 UNK        -0.5390 
     59 N          33.1476   29.5468    5.5691 N.am      10 UNK        -0.4215 
     60 CA         34.3376   28.9273    6.1627 C.3       10 UNK         0.0240 
     61 CB         35.2801   28.4394    5.0523 C.3       10 UNK        -0.1982 
     62 C          33.9845   27.7733    7.1146 C.2       10 UNK         0.4970 
     63 O          34.5444   27.6981    8.2080 O.2       10 UNK        -0.4916 
     64 N          33.0660   26.9057    6.6768 N.am      11 UNK        -0.4279 
     65 CA         32.5651   25.7401    7.4245 C.3       11 UNK         0.1003 
     66 C          31.1765   25.9695    8.0907 C.2       11 UNK         0.5709 
     67 N          30.6004   27.1653    8.0329 N.am      11 UNK        -0.7358 
     68 O          30.6218   25.0546    8.6942 O.2       11 UNK        -0.4999 
     69 C69        32.6229   24.4473    6.5641 C.3       12 UNK        -0.0954 
     70 S70        31.7013   24.5664    4.9970 S.3       12 UNK        -0.2268 
     71 C71        31.9222   22.8865    4.3367 C.3       12 UNK         0.0203 
     72 H72        37.5040   26.8779    1.3337 H         1 UNK         0.0888 
     73 H73        36.6816   28.1030    2.2975 H         1 UNK         0.0888 
     74 H74        37.0956   26.5444    3.0192 H         1 UNK         0.0888 
     75 H75        34.4051   28.1522    2.1721 H         1 UNK         0.3017 
     76 H76        32.8539   25.8136    1.7459 H         1 UNK         0.0873 
     77 H77        33.6429   26.6693   -0.6608 H         1 UNK         0.0745 
     78 H78        32.4869   27.9362   -0.4187 H         1 UNK         0.0745 
     79 H79        32.1036   23.5845   -1.4694 H         1 UNK         0.0705 
     80 H80        33.2752   24.2317   -0.3444 H         1 UNK         0.0705 
     81 H81        33.0738   23.7005    2.0334 H         1 UNK         0.1334 
     82 H82        29.4754   21.9347    3.5502 H         1 UNK         0.1417 
     83 H83        29.8024   22.9053   -0.6158 H         1 UNK         0.1562 
     84 H84        27.8491   21.0257    1.9050 H         1 UNK         0.0748 
     85 H85        27.9971   21.3786    0.2026 H         1 UNK         0.0748 
     86 H86        27.5507   23.6112   -0.8770 H         1 UNK         0.0940 
     87 H87        28.1642   24.8239    0.2293 H         1 UNK         0.0940 
     88 H88        25.2623   24.5368   -0.6926 H         1 UNK         0.0703 
     89 H89        26.4814   26.6189    1.0611 H         1 UNK         0.3081 
     90 H90        23.3242   27.6838    2.1938 H         1 UNK         0.0719 
     91 H91        25.3011   25.9930    3.8262 H         1 UNK         0.0809 
     92 H92        24.1423   27.1498    4.4857 H         1 UNK         0.0809 
     93 H93        23.5748   25.6941    3.6855 H         1 UNK         0.0809 
     94 H94        26.0105   28.2394    3.0504 H         1 UNK         0.2990 
     95 H95        27.0179   30.2468    0.4019 H         1 UNK         0.0690 
     96 H96        27.1883   32.1737    1.9252 H         1 UNK         0.0788 
     97 H97        26.0710   31.4211    3.0631 H         1 UNK         0.0788 
     98 H98        25.5089   31.9353    1.4770 H         1 UNK         0.0788 
     99 H99        28.2656   30.1819    2.8391 H         1 UNK         0.2993 
    100 H100       29.9954   28.9699    3.2985 H         1 UNK         0.0949 
    101 H101       29.9247   26.9741    4.7503 H         1 UNK         0.0767 
    102 H102       28.2950   27.5884    4.5492 H         1 UNK         0.0767 
    103 H103       28.8093   26.1627    3.6518 H         1 UNK         0.0767 
    104 H104       30.3922   26.7420    1.4038 H         1 UNK         0.3013 
    105 H105       27.5440   27.3496   -0.6164 H         1 UNK         0.3121 
    106 H106       26.8834   27.9385   -3.4197 H         1 UNK         0.0774 
    107 H107       29.2971   28.0058   -4.1021 H         1 UNK         0.0815 
    108 H108       29.7495   27.2474   -2.5825 H         1 UNK         0.0815 
    109 H109       28.7546   26.3760   -3.7415 H         1 UNK         0.0815 
    110 H110       29.6384   28.9977   -1.3333 H         1 UNK         0.2987 
    111 H111       28.4734   31.6074   -0.8201 H         1 UNK         0.0949 
    112 H112       30.8475   31.3009   -2.7570 H         1 UNK         0.0806 
    113 H113       29.2474   31.8958   -3.1949 H         1 UNK         0.0806 
    114 H114       30.2604   32.8258   -2.1072 H         1 UNK         0.0806 
    115 H115       30.0754   32.9477    0.3730 H         1 UNK         0.3010 
    116 H116       31.4813   33.3896    2.0052 H         1 UNK         0.0829 
    117 H117       33.2705   32.1866    0.6449 H         1 UNK         0.0813 
    118 H118       33.5683   32.1988    2.3694 H         1 UNK         0.0813 
    119 H119       32.9624   30.7397    1.5984 H         1 UNK         0.0813 
    120 H120       32.5849   31.6612    4.0742 H         1 UNK         0.3038 
    121 H121       30.4615   30.1266    5.2752 H         1 UNK         0.0769 
    122 H122       31.0082   32.9119    6.4448 H         1 UNK         0.0811 
    123 H123       30.0387   31.6585    7.2092 H         1 UNK         0.0811 
    124 H124       29.4937   32.3863    5.7128 H         1 UNK         0.0811 
    125 H125       32.9066   29.2724    4.6151 H         1 UNK         0.3204 
    126 H126       34.8685   29.6877    6.7400 H         1 UNK         0.0748 
    127 H127       35.5397   29.2468    4.3673 H         1 UNK         0.0771 
    128 H128       36.2117   28.0577    5.4727 H         1 UNK         0.0771 
    129 H129       34.8311   27.6320    4.4748 H         1 UNK         0.0771 
    130 H130       32.6558   27.0445    5.7654 H         1 UNK         0.2980 
    131 H131       33.2324   25.5623    8.2693 H         1 UNK         0.0545 
    132 H132       31.0680   27.9362    7.5878 H         1 UNK         0.3459 
    133 H133       29.7067   27.3022    8.4775 H         1 UNK         0.3459 
    134 H134       33.6629   24.2225    6.3228 H         1 UNK         0.0616 
    135 H135       32.2568   23.5872    7.1279 H         1 UNK         0.0616 
    136 H136       31.4374   22.1667    4.9978 H         1 UNK         0.0634 
    137 H137       32.9839   22.6353    4.3176 H         1 UNK         0.0634 
@<TRIPOS>BOND
     1    1    2 1    
     2    1   72 1    
     3    1   73 1    
     4    1   74 1    
     5    2    3 2    
     6    2    4 am   BACKBONE|DICT|INTERRES
     7    4    5 1    
     8    4   75 1    
     9    5    6 1    
    10    5   35 1    
    11    5   76 1    
    12    6    7 1    
    13    6   77 1    
    14    6   78 1    
    15    7    8 1    
    16    8    9 1    
    17    8   79 1    
    18    8   80 1    
    19    9   10 ar   
    20    9   14 ar   
    21   10   11 ar   
    22   10   81 1    
    23   11   12 ar   
    24   11   71 1    
    25   12   13 ar   
    26   12   82 1    
    27   13   14 ar   
    28   13   15 1    
    29   14   83 1    
    30   15   16 1    
    31   15   84 1    
    32   15   85 1    
    33   16   17 1    
    34   17   18 1    
    35   17   86 1    
    36   17   87 1    
    37   18   19 1    
    38   18   37 1    
    39   18   88 1    
    40   19   20 am   BACKBONE|DICT|INTERRES
    41   19   89 1    
    42   20   21 2    
    43   20   22 1    
    44   22   23 1    
    45   22   24 1    
    46   22   90 1    
    47   23   91 1    
    48   23   92 1    
    49   23   93 1    
    50   24   25 am   BACKBONE|DICT|INTERRES
    51   24   94 1    
    52   25   26 2    
    53   25   27 1    
    54   27   28 1    
    55   27   29 1    
    56   27   95 1    
    57   28   96 1    
    58   28   97 1    
    59   28   98 1    
    60   29   30 am   BACKBONE|DICT|INTERRES
    61   29   99 1    
    62   30   31 2    
    63   30   32 1    
    64   32   33 1    
    65   32   34 1    
    66   32  100 1    
    67   33  101 1    
    68   33  102 1    
    69   33  103 1    
    70   34   35 am   BACKBONE|DICT|INTERRES
    71   34  104 1    
    72   35   36 2    
    73   37   38 2    
    74   37   39 am   BACKBONE|DICT|INTERRES
    75   39   40 1    
    76   39  105 1    
    77   40   41 1    
    78   40   42 1    
    79   40  106 1    
    80   41  107 1    
    81   41  108 1    
    82   41  109 1    
    83   42   43 2    
    84   42   44 am   BACKBONE|DICT|INTERRES
    85   44   45 1    
    86   44  110 1    
    87   45   46 1    
    88   45   47 1    
    89   45  111 1    
    90   46  112 1    
    91   46  113 1    
    92   46  114 1    
    93   47   48 2    
    94   47   49 am   BACKBONE|DICT|INTERRES
    95   49   50 1    
    96   49  115 1    
    97   50   51 1    
    98   50   52 1    
    99   50  116 1    
   100   51  117 1    
   101   51  118 1    
   102   51  119 1    
   103   52   53 2    
   104   52   54 am   BACKBONE|DICT|INTERRES
   105   54   55 1    
   106   54  120 1    
   107   55   56 1    
   108   55   57 1    
   109   55  121 1    
   110   56  122 1    
   111   56  123 1    
   112   56  124 1    
   113   57   58 2    
   114   57   59 am   BACKBONE|DICT|INTERRES
   115   59   60 1    
   116   59  125 1    
   117   60   61 1    
   118   60   62 1    
   119   60  126 1    
   120   61  127 1    
   121   61  128 1    
   122   61  129 1    
   123   62   63 2    
   124   62   64 am   BACKBONE|DICT|INTERRES
   125   64   65 1    
   126   64  130 1    
   127   65   66 1    
   128   65   69 1    
   129   65  131 1    
   130   66   67 am   BACKBONE|DICT|INTERRES
   131   66   68 2    
   132   67  132 1    
   133   67  133 1    
   134   69   70 1    
   135   69  134 1    
   136   69  135 1    
   137   70   71 1    
   138   71  136 1    
   139   71  137 1    
@<TRIPOS>SUBSTRUCTURE
     1 UNK         1 GROUP             0       ****    0 ROOT    
