@<TRIPOS>MOLECULE
3R136
137   139    1
SMALL
USER_CHARGES


@<TRIPOS>ATOM
      1 CA         29.6221   27.2790   -5.5834 C.3       0 UNK        -0.1979 
      2 C          29.6729   26.6173   -4.2140 C.2       0 UNK         0.4864 
      3 O          30.3158   25.5773   -4.0648 O.2       0 UNK        -0.5359 
      4 N          29.0030   27.2168   -3.2195 N.am      1 UNK        -0.4318 
      5 CA         28.8776   26.7303   -1.8419 C.3       1 UNK         0.0824 
      6 C6         30.2389   26.6959   -1.0852 C.3       12 UNK        -0.0944 
      7 S7         30.0397   26.8371    0.7225 S.3       12 UNK        -0.2672 
      8 C8         30.9461   25.3847    1.3337 C.3       12 UNK         0.0333 
      9 C9         30.6412   25.1621    2.8057 C.ar      12 UNK        -0.0807 
     10 C10        31.3936   25.8057    3.7932 C.ar      12 UNK        -0.0894 
     11 C11        31.0852   25.6280    5.1466 C.ar      12 UNK        -0.0804 
     12 C12        29.9974   24.8257    5.5044 C.ar      12 UNK        -0.0824 
     13 C13        29.2303   24.1875    4.5246 C.ar      12 UNK        -0.0762 
     14 C14        29.5794   24.3331    3.1792 C.ar      12 UNK        -0.0782 
     15 C15        28.0108   23.3618    4.9232 C.3       12 UNK         0.0230 
     16 S16        26.4434   24.0087    4.2359 S.3       12 UNK        -0.2608 
     17 C17        26.5354   25.7891    4.6236 C.3       12 UNK        -0.0989 
     18 CA         26.9062   26.6164    3.3661 C.3       5 UNK         0.0716 
     19 N          25.8117   26.6607    2.3938 N.am      5 UNK        -0.4135 
     20 C          25.8653   27.2414    1.1886 C.2       4 UNK         0.5031 
     21 O          26.8284   27.8866    0.7746 O.2       4 UNK        -0.5229 
     22 CA         24.6607   26.9930    0.2681 C.3       4 UNK         0.0329 
     23 CB         24.6554   27.9181   -0.9636 C.3       4 UNK        -0.2001 
     24 N          24.6789   25.5993   -0.1777 N.am      4 UNK        -0.4303 
     25 C          24.1332   24.5766    0.4963 C.2       3 UNK         0.5044 
     26 O          23.4919   24.7188    1.5385 O.2       3 UNK        -0.5152 
     27 CA         24.3426   23.1581   -0.0672 C.3       3 UNK         0.0319 
     28 CB         23.1604   22.7555   -0.9631 C.3       3 UNK        -0.2001 
     29 N          25.5910   23.0105   -0.8194 N.am      3 UNK        -0.4354 
     30 C          26.8151   23.0300   -0.2741 C.2       2 UNK         0.4964 
     31 O          27.0248   23.1028    0.9349 O.2       2 UNK        -0.5047 
     32 CA         28.0194   22.9859   -1.2312 C.3       2 UNK         0.0288 
     33 CB         27.7029   22.3776   -2.6174 C.3       2 UNK        -0.2113 
     34 N          28.6329   24.3118   -1.3682 N.am      2 UNK        -0.4145 
     35 C          28.0417   25.4326   -1.8095 C.2       1 UNK         0.5006 
     36 O          26.8699   25.4807   -2.1946 O.2       1 UNK        -0.5103 
     37 C          27.4436   28.0041    3.7623 C.2       5 UNK         0.5055 
     38 O          26.6718   28.9575    3.8864 O.2       5 UNK        -0.5220 
     39 N          28.7668   28.0533    3.9750 N.am      6 UNK        -0.4450 
     40 CA         29.5903   29.2016    4.3724 C.3       6 UNK         0.0367 
     41 CB         29.0899   29.8333    5.6895 C.3       6 UNK        -0.1929 
     42 C          29.8196   30.2557    3.2724 C.2       6 UNK         0.5070 
     43 O          30.5341   31.2266    3.5300 O.2       6 UNK        -0.5237 
     44 N          29.2801   30.0491    2.0611 N.am      7 UNK        -0.4739 
     45 CA         29.4521   30.9506    0.9149 C.3       7 UNK         0.0276 
     46 CB         28.5096   30.5312   -0.2210 C.3       7 UNK        -0.1927 
     47 C          30.9018   31.0362    0.4054 C.2       7 UNK         0.5013 
     48 O          31.2914   32.0768   -0.1245 O.2       7 UNK        -0.5193 
     49 N          31.6954   29.9774    0.6211 N.am      8 UNK        -0.4253 
     50 CA         33.1299   29.8962    0.3169 C.3       8 UNK         0.0242 
     51 CB         33.5305   28.4113    0.2132 C.3       8 UNK        -0.2000 
     52 C          34.0172   30.6692    1.3218 C.2       8 UNK         0.4948 
     53 O          35.0917   30.1841    1.6786 O.2       8 UNK        -0.5275 
     54 N          33.5572   31.8530    1.7551 N.am      9 UNK        -0.4246 
     55 CA         34.1535   32.7400    2.7616 C.3       9 UNK         0.0261 
     56 CB         35.4740   33.3500    2.2432 C.3       9 UNK        -0.1959 
     57 C          34.2966   32.0596    4.1384 C.2       9 UNK         0.5033 
     58 O          35.3701   32.1122    4.7438 O.2       9 UNK        -0.5390 
     59 N          33.1993   31.4422    4.6028 N.am      10 UNK        -0.4215 
     60 CA         33.0745   30.6737    5.8463 C.3       10 UNK         0.0240 
     61 CB         33.2547   31.5874    7.0813 C.3       10 UNK        -0.1982 
     62 C          33.9589   29.4092    5.8620 C.2       10 UNK         0.4970 
     63 O          34.2695   28.8645    4.8015 O.2       10 UNK        -0.4916 
     64 N          34.2923   28.9368    7.0659 N.am      11 UNK        -0.4279 
     65 CA         35.1474   27.7784    7.3451 C.3       11 UNK         0.1003 
     66 C          36.1359   28.1371    8.4845 C.2       11 UNK         0.5709 
     67 N          37.2984   27.5006    8.5197 N.am      11 UNK        -0.7358 
     68 O          35.8504   28.9635    9.3510 O.2       11 UNK        -0.4999 
     69 C69        34.3107   26.5206    7.7110 C.3       12 UNK        -0.0954 
     70 S70        33.6167   25.6749    6.2536 S.3       12 UNK        -0.2268 
     71 C71        31.9143   26.3147    6.2228 C.3       12 UNK         0.0203 
     72 H72        29.1814   26.5989   -6.3119 H         1 UNK         0.0888 
     73 H73        29.0311   28.1947   -5.5734 H         1 UNK         0.0888 
     74 H74        30.6291   27.5295   -5.9162 H         1 UNK         0.0888 
     75 H75        28.4692   28.0495   -3.4260 H         1 UNK         0.3017 
     76 H76        28.2497   27.4721   -1.3510 H         1 UNK         0.0873 
     77 H77        30.8436   25.8285   -1.3536 H         1 UNK         0.0745 
     78 H78        30.8285   27.5610   -1.3903 H         1 UNK         0.0745 
     79 H79        30.6679   24.5001    0.7599 H         1 UNK         0.0705 
     80 H80        32.0166   25.5322    1.1828 H         1 UNK         0.0705 
     81 H81        32.2217   26.4432    3.5120 H         1 UNK         0.1334 
     82 H82        29.7419   24.7044    6.5484 H         1 UNK         0.1417 
     83 H83        28.9849   23.8430    2.4200 H         1 UNK         0.1562 
     84 H84        27.9173   23.3110    6.0091 H         1 UNK         0.0748 
     85 H85        28.1477   22.3355    4.5801 H         1 UNK         0.0748 
     86 H86        27.2557   25.9341    5.4312 H         1 UNK         0.0940 
     87 H87        25.5748   26.1147    5.0270 H         1 UNK         0.0940 
     88 H88        27.7163   26.1144    2.8396 H         1 UNK         0.0703 
     89 H89        24.9938   26.1094    2.6181 H         1 UNK         0.3081 
     90 H90        23.7510   27.1933    0.8384 H         1 UNK         0.0719 
     91 H91        25.5359   27.7698   -1.5895 H         1 UNK         0.0809 
     92 H92        23.7739   27.7485   -1.5819 H         1 UNK         0.0809 
     93 H93        24.6446   28.9661   -0.6617 H         1 UNK         0.0809 
     94 H94        25.2602   25.3987   -0.9863 H         1 UNK         0.2990 
     95 H95        24.3768   22.4714    0.7815 H         1 UNK         0.0690 
     96 H96        23.2547   21.7248   -1.3057 H         1 UNK         0.0788 
     97 H97        23.0820   23.3971   -1.8418 H         1 UNK         0.0788 
     98 H98        22.2171   22.8298   -0.4200 H         1 UNK         0.0788 
     99 H99        25.5191   22.9769   -1.8263 H         1 UNK         0.2993 
    100 H100       28.7627   22.3448   -0.7542 H         1 UNK         0.0949 
    101 H101       27.0155   22.9912   -3.2004 H         1 UNK         0.0767 
    102 H102       28.6134   22.2639   -3.2062 H         1 UNK         0.0767 
    103 H103       27.2606   21.3852   -2.5191 H         1 UNK         0.0767 
    104 H104       29.5942   24.3810   -1.0702 H         1 UNK         0.3013 
    105 H105       29.2894   27.1994    3.8215 H         1 UNK         0.3121 
    106 H106       30.5782   28.7854    4.5703 H         1 UNK         0.0774 
    107 H107       28.1103   30.2967    5.5743 H         1 UNK         0.0815 
    108 H108       29.7638   30.6155    6.0385 H         1 UNK         0.0815 
    109 H109       29.0194   29.0899    6.4834 H         1 UNK         0.0815 
    110 H110       28.7051   29.2290    1.9128 H         1 UNK         0.2987 
    111 H111       29.1654   31.9532    1.2399 H         1 UNK         0.0949 
    112 H112       28.7573   29.5390   -0.5936 H         1 UNK         0.0806 
    113 H113       27.4700   30.5180    0.1068 H         1 UNK         0.0806 
    114 H114       28.5768   31.2225   -1.0621 H         1 UNK         0.0806 
    115 H115       31.2838   29.1719    1.0717 H         1 UNK         0.3010 
    116 H116       33.2976   30.3535   -0.6605 H         1 UNK         0.0829 
    117 H117       34.5811   28.3031   -0.0592 H         1 UNK         0.0813 
    118 H118       33.3828   27.8889    1.1593 H         1 UNK         0.0813 
    119 H119       32.9548   27.8932   -0.5516 H         1 UNK         0.0813 
    120 H120       32.6795   32.1676    1.3544 H         1 UNK         0.3038 
    121 H121       33.4479   33.5605    2.9014 H         1 UNK         0.0769 
    122 H122       36.2482   32.5928    2.1150 H         1 UNK         0.0811 
    123 H123       35.8604   34.0932    2.9417 H         1 UNK         0.0811 
    124 H124       35.3313   33.8498    1.2852 H         1 UNK         0.0811 
    125 H125       32.3604   31.4507    4.0258 H         1 UNK         0.3204 
    126 H126       32.0495   30.3086    5.8617 H         1 UNK         0.0748 
    127 H127       32.9276   31.0943    7.9972 H         1 UNK         0.0771 
    128 H128       34.2947   31.8864    7.2188 H         1 UNK         0.0771 
    129 H129       32.6598   32.4961    6.9868 H         1 UNK         0.0771 
    130 H130       34.0424   29.4707    7.8870 H         1 UNK         0.2980 
    131 H131       35.7544   27.5613    6.4637 H         1 UNK         0.0545 
    132 H132       37.5381   26.8125    7.8226 H         1 UNK         0.3459 
    133 H133       37.9499   27.7121    9.2592 H         1 UNK         0.3459 
    134 H134       33.5163   26.7693    8.4168 H         1 UNK         0.0616 
    135 H135       34.9328   25.7787    8.2155 H         1 UNK         0.0616 
    136 H136       31.4625   26.1736    7.2059 H         1 UNK         0.0634 
    137 H137       31.9272   27.3877    6.0386 H         1 UNK         0.0634 
@<TRIPOS>BOND
     1    1    2 1    
     2    1   72 1    
     3    1   73 1    
     4    1   74 1    
     5    2    3 2    
     6    2    4 am   BACKBONE|DICT|INTERRES
     7    4    5 1    
     8    4   75 1    
     9    5    6 1    
    10    5   35 1    
    11    5   76 1    
    12    6    7 1    
    13    6   77 1    
    14    6   78 1    
    15    7    8 1    
    16    8    9 1    
    17    8   79 1    
    18    8   80 1    
    19    9   10 ar   
    20    9   14 ar   
    21   10   11 ar   
    22   10   81 1    
    23   11   12 ar   
    24   11   71 1    
    25   12   13 ar   
    26   12   82 1    
    27   13   14 ar   
    28   13   15 1    
    29   14   83 1    
    30   15   16 1    
    31   15   84 1    
    32   15   85 1    
    33   16   17 1    
    34   17   18 1    
    35   17   86 1    
    36   17   87 1    
    37   18   19 1    
    38   18   37 1    
    39   18   88 1    
    40   19   20 am   BACKBONE|DICT|INTERRES
    41   19   89 1    
    42   20   21 2    
    43   20   22 1    
    44   22   23 1    
    45   22   24 1    
    46   22   90 1    
    47   23   91 1    
    48   23   92 1    
    49   23   93 1    
    50   24   25 am   BACKBONE|DICT|INTERRES
    51   24   94 1    
    52   25   26 2    
    53   25   27 1    
    54   27   28 1    
    55   27   29 1    
    56   27   95 1    
    57   28   96 1    
    58   28   97 1    
    59   28   98 1    
    60   29   30 am   BACKBONE|DICT|INTERRES
    61   29   99 1    
    62   30   31 2    
    63   30   32 1    
    64   32   33 1    
    65   32   34 1    
    66   32  100 1    
    67   33  101 1    
    68   33  102 1    
    69   33  103 1    
    70   34   35 am   BACKBONE|DICT|INTERRES
    71   34  104 1    
    72   35   36 2    
    73   37   38 2    
    74   37   39 am   BACKBONE|DICT|INTERRES
    75   39   40 1    
    76   39  105 1    
    77   40   41 1    
    78   40   42 1    
    79   40  106 1    
    80   41  107 1    
    81   41  108 1    
    82   41  109 1    
    83   42   43 2    
    84   42   44 am   BACKBONE|DICT|INTERRES
    85   44   45 1    
    86   44  110 1    
    87   45   46 1    
    88   45   47 1    
    89   45  111 1    
    90   46  112 1    
    91   46  113 1    
    92   46  114 1    
    93   47   48 2    
    94   47   49 am   BACKBONE|DICT|INTERRES
    95   49   50 1    
    96   49  115 1    
    97   50   51 1    
    98   50   52 1    
    99   50  116 1    
   100   51  117 1    
   101   51  118 1    
   102   51  119 1    
   103   52   53 2    
   104   52   54 am   BACKBONE|DICT|INTERRES
   105   54   55 1    
   106   54  120 1    
   107   55   56 1    
   108   55   57 1    
   109   55  121 1    
   110   56  122 1    
   111   56  123 1    
   112   56  124 1    
   113   57   58 2    
   114   57   59 am   BACKBONE|DICT|INTERRES
   115   59   60 1    
   116   59  125 1    
   117   60   61 1    
   118   60   62 1    
   119   60  126 1    
   120   61  127 1    
   121   61  128 1    
   122   61  129 1    
   123   62   63 2    
   124   62   64 am   BACKBONE|DICT|INTERRES
   125   64   65 1    
   126   64  130 1    
   127   65   66 1    
   128   65   69 1    
   129   65  131 1    
   130   66   67 am   BACKBONE|DICT|INTERRES
   131   66   68 2    
   132   67  132 1    
   133   67  133 1    
   134   69   70 1    
   135   69  134 1    
   136   69  135 1    
   137   70   71 1    
   138   71  136 1    
   139   71  137 1    
@<TRIPOS>SUBSTRUCTURE
     1 UNK         1 GROUP             0       ****    0 ROOT    
