@<TRIPOS>MOLECULE
3R136
137   139    1
SMALL
USER_CHARGES


@<TRIPOS>ATOM
      1 CA         27.0764   21.9847    2.7746 C.3       0 UNK        -0.1979 
      2 C          27.5781   22.3002    1.3757 C.2       0 UNK         0.4864 
      3 O          27.7225   23.4725    1.0213 O.2       0 UNK        -0.5359 
      4 N          27.8104   21.2564    0.5683 N.am      1 UNK        -0.4318 
      5 CA         28.2913   21.2781   -0.8228 C.3       1 UNK         0.0824 
      6 C6         29.6843   21.9443   -1.0013 C.3       12 UNK        -0.0944 
      7 S7         30.9733   21.0608   -0.0610 S.3       12 UNK        -0.2672 
      8 C8         32.3484   22.2631   -0.0767 C.3       12 UNK         0.0333 
      9 C9         32.2845   23.3485    1.0001 C.ar      12 UNK        -0.0807 
     10 C10        32.8673   24.5946    0.7391 C.ar      12 UNK        -0.0894 
     11 C11        32.8842   25.5932    1.7173 C.ar      12 UNK        -0.0804 
     12 C12        32.3276   25.3384    2.9708 C.ar      12 UNK        -0.0824 
     13 C13        31.7304   24.1086    3.2474 C.ar      12 UNK        -0.0762 
     14 C14        31.7153   23.1157    2.2609 C.ar      12 UNK        -0.0782 
     15 C15        31.1167   23.8482    4.6157 C.3       12 UNK         0.0230 
     16 S16        29.3133   24.0834    4.5846 S.3       12 UNK        -0.2608 
     17 C17        29.0771   25.7655    5.2654 C.3       12 UNK        -0.0989 
     18 CA         29.3995   26.9430    4.3035 C.3       5 UNK         0.0716 
     19 N          29.0524   26.6519    2.9114 N.am      5 UNK        -0.4135 
     20 C          29.3585   27.4197    1.8577 C.2       4 UNK         0.5031 
     21 O          29.9756   28.4796    1.9299 O.2       4 UNK        -0.5229 
     22 CA         28.8241   26.9583    0.4988 C.3       4 UNK         0.0329 
     23 CB         29.8362   26.0440   -0.2037 C.3       4 UNK        -0.2001 
     24 N          27.5429   26.2642    0.6055 N.am      4 UNK        -0.4303 
     25 C          26.3793   26.8118    0.9820 C.2       3 UNK         0.5044 
     26 O          26.2795   27.9642    1.4093 O.2       3 UNK        -0.5152 
     27 CA         25.1333   25.9042    0.8806 C.3       3 UNK         0.0319 
     28 CB         23.8243   26.7081    0.7359 C.3       3 UNK        -0.2001 
     29 N          25.2559   24.8803   -0.1725 N.am      3 UNK        -0.4354 
     30 C          25.4215   25.0848   -1.4917 C.2       2 UNK         0.4964 
     31 O          25.3326   26.1882   -2.0319 O.2       2 UNK        -0.5047 
     32 CA         25.8313   23.8558   -2.3246 C.3       2 UNK         0.0288 
     33 CB         26.3186   24.2252   -3.7426 C.3       2 UNK        -0.2113 
     34 N          26.8679   23.1138   -1.6048 N.am      2 UNK        -0.4145 
     35 C          27.2381   21.8453   -1.7998 C.2       1 UNK         0.5006 
     36 O          26.7673   21.1199   -2.6776 O.2       1 UNK        -0.5103 
     37 C          28.7556   28.2509    4.8170 C.2       5 UNK         0.5055 
     38 O          29.3187   28.8870    5.7081 O.2       5 UNK        -0.5220 
     39 N          27.5928   28.6174    4.2567 N.am      6 UNK        -0.4450 
     40 CA         26.8810   29.8594    4.5481 C.3       6 UNK         0.0367 
     41 CB         25.3672   29.5884    4.5673 C.3       6 UNK        -0.1929 
     42 C          27.2213   30.9469    3.5192 C.2       6 UNK         0.5070 
     43 O          27.4626   32.0882    3.9120 O.2       6 UNK        -0.5237 
     44 N          27.2225   30.5870    2.2259 N.am      7 UNK        -0.4739 
     45 CA         27.4527   31.5096    1.1089 C.3       7 UNK         0.0276 
     46 CB         27.1158   30.8086   -0.2164 C.3       7 UNK        -0.1927 
     47 C          28.8751   32.0929    1.0681 C.2       7 UNK         0.5013 
     48 O          29.0319   33.2701    0.7413 O.2       7 UNK        -0.5193 
     49 N          29.8750   31.2757    1.4161 N.am      8 UNK        -0.4253 
     50 CA         31.2744   31.6613    1.5509 C.3       8 UNK         0.0242 
     51 CB         32.1205   30.8661    0.5380 C.3       8 UNK        -0.2000 
     52 C          31.6832   31.3935    3.0027 C.2       8 UNK         0.4948 
     53 O          32.4565   30.4738    3.2681 O.2       8 UNK        -0.5275 
     54 N          31.1446   32.1990    3.9285 N.am      9 UNK        -0.4246 
     55 CA         31.3116   32.0643    5.3829 C.3       9 UNK         0.0261 
     56 CB         30.4683   33.1399    6.0861 C.3       9 UNK        -0.1959 
     57 C          32.7669   32.0989    5.8940 C.2       9 UNK         0.5033 
     58 O          33.0326   31.5733    6.9757 O.2       9 UNK        -0.5390 
     59 N          33.6832   32.6941    5.1163 N.am      10 UNK        -0.4215 
     60 CA         35.1288   32.6629    5.3603 C.3       10 UNK         0.0240 
     61 CB         35.8160   33.7139    4.4734 C.3       10 UNK        -0.1982 
     62 C          35.7504   31.2712    5.1269 C.2       10 UNK         0.4970 
     63 O          36.7386   30.9387    5.7823 O.2       10 UNK        -0.4916 
     64 N          35.1661   30.4933    4.2077 N.am      11 UNK        -0.4279 
     65 CA         35.4880   29.0852    3.9517 C.3       11 UNK         0.1003 
     66 C          34.6302   28.1681    4.8707 C.2       11 UNK         0.5709 
     67 N          33.3280   28.4034    4.9800 N.am      11 UNK        -0.7358 
     68 O          35.1556   27.2619    5.5131 O.2       11 UNK        -0.4999 
     69 C69        35.3786   28.7823    2.4251 C.3       12 UNK        -0.0954 
     70 S70        35.2341   27.0255    1.9396 S.3       12 UNK        -0.2268 
     71 C71        33.4871   26.9578    1.4326 C.3       12 UNK         0.0203 
     72 H72        26.3237   21.1970    2.7540 H         1 UNK         0.0888 
     73 H73        27.9028   21.6578    3.4048 H         1 UNK         0.0888 
     74 H74        26.6292   22.8682    3.2295 H         1 UNK         0.0888 
     75 H75        27.6436   20.3285    0.9324 H         1 UNK         0.3017 
     76 H76        28.4065   20.2283   -1.0987 H         1 UNK         0.0873 
     77 H77        29.9787   21.9418   -2.0525 H         1 UNK         0.0745 
     78 H78        29.6683   22.9890   -0.6897 H         1 UNK         0.0745 
     79 H79        33.2795   21.7122    0.0611 H         1 UNK         0.0705 
     80 H80        32.4047   22.7140   -1.0689 H         1 UNK         0.0705 
     81 H81        33.3153   24.7888   -0.2259 H         1 UNK         0.1334 
     82 H82        32.3634   26.1040    3.7310 H         1 UNK         0.1417 
     83 H83        31.2662   22.1583    2.4852 H         1 UNK         0.1562 
     84 H84        31.5688   24.4876    5.3754 H         1 UNK         0.0748 
     85 H85        31.3301   22.8218    4.9178 H         1 UNK         0.0748 
     86 H86        29.6597   25.8623    6.1836 H         1 UNK         0.0940 
     87 H87        28.0320   25.8105    5.5797 H         1 UNK         0.0940 
     88 H88        30.4762   27.1099    4.3261 H         1 UNK         0.0703 
     89 H89        28.5799   25.7738    2.7476 H         1 UNK         0.3081 
     90 H90        28.6761   27.8432   -0.1213 H         1 UNK         0.0719 
     91 H91        30.0198   25.1378    0.3746 H         1 UNK         0.0809 
     92 H92        29.4884   25.7480   -1.1935 H         1 UNK         0.0809 
     93 H93        30.7933   26.5506   -0.3333 H         1 UNK         0.0809 
     94 H94        27.5612   25.2616    0.4493 H         1 UNK         0.2990 
     95 H95        25.0834   25.3613    1.8255 H         1 UNK         0.0690 
     96 H96        22.9589   26.0493    0.6669 H         1 UNK         0.0788 
     97 H97        23.8345   27.3447   -0.1493 H         1 UNK         0.0788 
     98 H98        23.6683   27.3580    1.5979 H         1 UNK         0.0788 
     99 H99        25.3391   23.9319    0.1670 H         1 UNK         0.2993 
    100 H100       24.9460   23.2227   -2.4136 H         1 UNK         0.0949 
    101 H101       27.2091   24.8540   -3.7076 H         1 UNK         0.0767 
    102 H102       26.5581   23.3385   -4.3294 H         1 UNK         0.0767 
    103 H103       25.5509   24.7723   -4.2915 H         1 UNK         0.0767 
    104 H104       27.2805   23.5761   -0.7993 H         1 UNK         0.3013 
    105 H105       27.2219   28.0537    3.5033 H         1 UNK         0.3121 
    106 H106       27.1677   30.2301    5.5348 H         1 UNK         0.0774 
    107 H107       25.0077   29.2091    3.6098 H         1 UNK         0.0815 
    108 H108       24.8115   30.5013    4.7857 H         1 UNK         0.0815 
    109 H109       25.1062   28.8596    5.3348 H         1 UNK         0.0815 
    110 H110       26.9683   29.6340    1.9775 H         1 UNK         0.2987 
    111 H111       26.7629   32.3478    1.2307 H         1 UNK         0.0949 
    112 H112       27.7754   29.9620   -0.4033 H         1 UNK         0.0806 
    113 H113       26.0896   30.4403   -0.2223 H         1 UNK         0.0806 
    114 H114       27.2198   31.4946   -1.0581 H         1 UNK         0.0806 
    115 H115       29.6694   30.3138    1.6824 H         1 UNK         0.3010 
    116 H116       31.4153   32.7264    1.3556 H         1 UNK         0.0829 
    117 H117       31.8185   31.0852   -0.4860 H         1 UNK         0.0813 
    118 H118       33.1774   31.1197    0.6277 H         1 UNK         0.0813 
    119 H119       32.0283   29.7899    0.6891 H         1 UNK         0.0813 
    120 H120       30.4970   32.9102    3.6186 H         1 UNK         0.3038 
    121 H121       30.9094   31.0870    5.6567 H         1 UNK         0.0769 
    122 H122       30.7935   34.1463    5.8198 H         1 UNK         0.0811 
    123 H123       30.5429   33.0485    7.1707 H         1 UNK         0.0811 
    124 H124       29.4128   33.0466    5.8286 H         1 UNK         0.0811 
    125 H125       33.3709   33.1241    4.2582 H         1 UNK         0.3204 
    126 H126       35.3033   32.9305    6.4047 H         1 UNK         0.0748 
    127 H127       36.8919   33.7323    4.6536 H         1 UNK         0.0771 
    128 H128       35.6672   33.5090    3.4123 H         1 UNK         0.0771 
    129 H129       35.4381   34.7157    4.6794 H         1 UNK         0.0771 
    130 H130       34.2998   30.8071    3.7837 H         1 UNK         0.2980 
    131 H131       36.5288   28.9064    4.2288 H         1 UNK         0.0545 
    132 H132       32.7731   27.8512    5.6112 H         1 UNK         0.3459 
    133 H133       32.8998   29.1383    4.4211 H         1 UNK         0.3459 
    134 H134       36.2557   29.1900    1.9209 H         1 UNK         0.0616 
    135 H135       34.5346   29.3230    1.9955 H         1 UNK         0.0616 
    136 H136       33.4078   27.2020    0.3724 H         1 UNK         0.0634 
    137 H137       32.9090   27.7155    1.9654 H         1 UNK         0.0634 
@<TRIPOS>BOND
     1    1    2 1    
     2    1   72 1    
     3    1   73 1    
     4    1   74 1    
     5    2    3 2    
     6    2    4 am   BACKBONE|DICT|INTERRES
     7    4    5 1    
     8    4   75 1    
     9    5    6 1    
    10    5   35 1    
    11    5   76 1    
    12    6    7 1    
    13    6   77 1    
    14    6   78 1    
    15    7    8 1    
    16    8    9 1    
    17    8   79 1    
    18    8   80 1    
    19    9   10 ar   
    20    9   14 ar   
    21   10   11 ar   
    22   10   81 1    
    23   11   12 ar   
    24   11   71 1    
    25   12   13 ar   
    26   12   82 1    
    27   13   14 ar   
    28   13   15 1    
    29   14   83 1    
    30   15   16 1    
    31   15   84 1    
    32   15   85 1    
    33   16   17 1    
    34   17   18 1    
    35   17   86 1    
    36   17   87 1    
    37   18   19 1    
    38   18   37 1    
    39   18   88 1    
    40   19   20 am   BACKBONE|DICT|INTERRES
    41   19   89 1    
    42   20   21 2    
    43   20   22 1    
    44   22   23 1    
    45   22   24 1    
    46   22   90 1    
    47   23   91 1    
    48   23   92 1    
    49   23   93 1    
    50   24   25 am   BACKBONE|DICT|INTERRES
    51   24   94 1    
    52   25   26 2    
    53   25   27 1    
    54   27   28 1    
    55   27   29 1    
    56   27   95 1    
    57   28   96 1    
    58   28   97 1    
    59   28   98 1    
    60   29   30 am   BACKBONE|DICT|INTERRES
    61   29   99 1    
    62   30   31 2    
    63   30   32 1    
    64   32   33 1    
    65   32   34 1    
    66   32  100 1    
    67   33  101 1    
    68   33  102 1    
    69   33  103 1    
    70   34   35 am   BACKBONE|DICT|INTERRES
    71   34  104 1    
    72   35   36 2    
    73   37   38 2    
    74   37   39 am   BACKBONE|DICT|INTERRES
    75   39   40 1    
    76   39  105 1    
    77   40   41 1    
    78   40   42 1    
    79   40  106 1    
    80   41  107 1    
    81   41  108 1    
    82   41  109 1    
    83   42   43 2    
    84   42   44 am   BACKBONE|DICT|INTERRES
    85   44   45 1    
    86   44  110 1    
    87   45   46 1    
    88   45   47 1    
    89   45  111 1    
    90   46  112 1    
    91   46  113 1    
    92   46  114 1    
    93   47   48 2    
    94   47   49 am   BACKBONE|DICT|INTERRES
    95   49   50 1    
    96   49  115 1    
    97   50   51 1    
    98   50   52 1    
    99   50  116 1    
   100   51  117 1    
   101   51  118 1    
   102   51  119 1    
   103   52   53 2    
   104   52   54 am   BACKBONE|DICT|INTERRES
   105   54   55 1    
   106   54  120 1    
   107   55   56 1    
   108   55   57 1    
   109   55  121 1    
   110   56  122 1    
   111   56  123 1    
   112   56  124 1    
   113   57   58 2    
   114   57   59 am   BACKBONE|DICT|INTERRES
   115   59   60 1    
   116   59  125 1    
   117   60   61 1    
   118   60   62 1    
   119   60  126 1    
   120   61  127 1    
   121   61  128 1    
   122   61  129 1    
   123   62   63 2    
   124   62   64 am   BACKBONE|DICT|INTERRES
   125   64   65 1    
   126   64  130 1    
   127   65   66 1    
   128   65   69 1    
   129   65  131 1    
   130   66   67 am   BACKBONE|DICT|INTERRES
   131   66   68 2    
   132   67  132 1    
   133   67  133 1    
   134   69   70 1    
   135   69  134 1    
   136   69  135 1    
   137   70   71 1    
   138   71  136 1    
   139   71  137 1    
@<TRIPOS>SUBSTRUCTURE
     1 UNK         1 GROUP             0       ****    0 ROOT    
