@<TRIPOS>MOLECULE
3R136
137   139    1
SMALL
USER_CHARGES


@<TRIPOS>ATOM
      1 CA         33.1920   20.3458   -0.7627 C.3       0 UNK        -0.1979 
      2 C          32.0996   21.2176   -0.1626 C.2       0 UNK         0.4864 
      3 O          32.1730   22.4438   -0.2565 O.2       0 UNK        -0.5359 
      4 N          31.0751   20.5978    0.4381 N.am      1 UNK        -0.4318 
      5 CA         29.9470   21.2463    1.1240 C.3       1 UNK         0.0824 
      6 C6         29.2853   20.2908    2.1523 C.3       12 UNK        -0.0944 
      7 S7         30.4649   19.7166    3.4214 S.3       12 UNK        -0.2672 
      8 C8         30.0269   20.7700    4.8407 C.3       12 UNK         0.0333 
      9 C9         30.2638   22.2475    4.5579 C.ar      12 UNK        -0.0807 
     10 C10        31.5657   22.7563    4.5167 C.ar      12 UNK        -0.0894 
     11 C11        31.7902   24.1164    4.2806 C.ar      12 UNK        -0.0804 
     12 C12        30.6985   24.9702    4.0889 C.ar      12 UNK        -0.0824 
     13 C13        29.3932   24.4711    4.1215 C.ar      12 UNK        -0.0762 
     14 C14        29.1814   23.1093    4.3548 C.ar      12 UNK        -0.0782 
     15 C15        28.2116   25.4075    3.9332 C.3       12 UNK         0.0230 
     16 S16        27.8431   25.6728    2.1725 S.3       12 UNK        -0.2608 
     17 C17        26.3924   26.7737    2.3154 C.3       12 UNK        -0.0989 
     18 CA         26.7950   28.2614    2.4585 C.3       5 UNK         0.0716 
     19 N          27.5712   28.7270    1.3116 N.am      5 UNK        -0.4135 
     20 C          28.2158   29.8939    1.2125 C.2       4 UNK         0.5031 
     21 O          28.2003   30.7543    2.0961 O.2       4 UNK        -0.5229 
     22 CA         29.0517   30.1126   -0.0679 C.3       4 UNK         0.0329 
     23 CB         29.9399   31.3690    0.0120 C.3       4 UNK        -0.2001 
     24 N          29.8947   28.9534   -0.3920 N.am      4 UNK        -0.4303 
     25 C          29.4616   27.8071   -0.9356 C.2       3 UNK         0.5044 
     26 O          28.2824   27.6253   -1.2506 O.2       3 UNK        -0.5152 
     27 CA         30.4926   26.6773   -1.1242 C.3       3 UNK         0.0319 
     28 CB         31.5990   26.6831   -0.0540 C.3       3 UNK        -0.2001 
     29 N          29.8324   25.3740   -1.0827 N.am      3 UNK        -0.4354 
     30 C          29.3309   24.7174   -2.1364 C.2       2 UNK         0.4964 
     31 O          29.4171   25.1156   -3.2998 O.2       2 UNK        -0.5047 
     32 CA         28.6502   23.3738   -1.8273 C.3       2 UNK         0.0288 
     33 CB         28.4821   22.4739   -3.0682 C.3       2 UNK        -0.2113 
     34 N          29.4119   22.6676   -0.7993 N.am      2 UNK        -0.4145 
     35 C          28.9216   21.8417    0.1291 C.2       1 UNK         0.5006 
     36 O          27.7281   21.5417    0.2066 O.2       1 UNK        -0.5103 
     37 C          25.5654   29.1589    2.6913 C.2       5 UNK         0.5055 
     38 O          24.9005   29.5463    1.7274 O.2       5 UNK        -0.5220 
     39 N          25.3113   29.4793    3.9691 N.am      6 UNK        -0.4450 
     40 CA         24.3186   30.4465    4.4631 C.3       6 UNK         0.0367 
     41 CB         22.8798   30.0231    4.0954 C.3       6 UNK        -0.1929 
     42 C          24.6292   31.9088    4.0710 C.2       6 UNK         0.5070 
     43 O          23.7383   32.7577    4.1349 O.2       6 UNK        -0.5237 
     44 N          25.8849   32.1858    3.7002 N.am      7 UNK        -0.4739 
     45 CA         26.4081   33.5031    3.3584 C.3       7 UNK         0.0276 
     46 CB         26.3086   33.7241    1.8332 C.3       7 UNK        -0.1927 
     47 C          27.8265   33.6142    3.9401 C.2       7 UNK         0.5013 
     48 O          27.9789   33.5274    5.1597 O.2       7 UNK        -0.5193 
     49 N          28.8356   33.8041    3.0802 N.am      8 UNK        -0.4253 
     50 CA         30.2409   33.9892    3.4558 C.3       8 UNK         0.0242 
     51 CB         30.9921   34.6066    2.2635 C.3       8 UNK        -0.2000 
     52 C          30.9598   32.7111    3.9291 C.2       8 UNK         0.4948 
     53 O          32.0633   32.8215    4.4660 O.2       8 UNK        -0.5275 
     54 N          30.3774   31.5284    3.6801 N.am      9 UNK        -0.4246 
     55 CA         30.8868   30.1702    3.9297 C.3       9 UNK         0.0261 
     56 CB         31.1691   29.9200    5.4233 C.3       9 UNK        -0.1959 
     57 C          32.0935   29.7801    3.0594 C.2       9 UNK         0.5033 
     58 O          32.1093   28.6720    2.5270 O.2       9 UNK        -0.5390 
     59 N          33.0679   30.6880    2.9199 N.am      10 UNK        -0.4215 
     60 CA         34.3222   30.6012    2.1611 C.3       10 UNK         0.0240 
     61 CB         34.0715   30.3616    0.6587 C.3       10 UNK        -0.1982 
     62 C          35.3223   29.5900    2.7464 C.2       10 UNK         0.4970 
     63 O          36.4285   29.9871    3.1139 O.2       10 UNK        -0.4916 
     64 N          34.9156   28.3201    2.8475 N.am      11 UNK        -0.4279 
     65 CA         35.6663   27.2422    3.5108 C.3       11 UNK         0.1003 
     66 C          35.5487   27.2365    5.0636 C.2       11 UNK         0.5709 
     67 N          34.7223   28.0775    5.6749 N.am      11 UNK        -0.7358 
     68 O          36.2326   26.4620    5.7284 O.2       11 UNK        -0.4999 
     69 C69        35.3777   25.8492    2.8835 C.3       12 UNK        -0.0954 
     70 S70        33.6113   25.4440    2.6689 S.3       12 UNK        -0.2268 
     71 C71        33.2089   24.6678    4.2634 C.3       12 UNK         0.0203 
     72 H72        34.1532   20.5864   -0.3095 H         1 UNK         0.0888 
     73 H73        32.9993   19.2846   -0.6058 H         1 UNK         0.0888 
     74 H74        33.2663   20.5230   -1.8353 H         1 UNK         0.0888 
     75 H75        31.0656   19.5883    0.4687 H         1 UNK         0.3017 
     76 H76        30.3453   22.0976    1.6809 H         1 UNK         0.0873 
     77 H77        28.4413   20.7747    2.6472 H         1 UNK         0.0745 
     78 H78        28.8745   19.4140    1.6483 H         1 UNK         0.0745 
     79 H79        28.9873   20.5872    5.1172 H         1 UNK         0.0705 
     80 H80        30.6268   20.4681    5.7005 H         1 UNK         0.0705 
     81 H81        32.4026   22.0891    4.6727 H         1 UNK         0.1334 
     82 H82        30.8681   26.0239    3.9086 H         1 UNK         0.1417 
     83 H83        28.1716   22.7225    4.3858 H         1 UNK         0.1562 
     84 H84        28.4244   26.3658    4.4093 H         1 UNK         0.0748 
     85 H85        27.3293   25.0043    4.4329 H         1 UNK         0.0748 
     86 H86        25.7839   26.4505    3.1625 H         1 UNK         0.0940 
     87 H87        25.7699   26.6323    1.4294 H         1 UNK         0.0940 
     88 H88        27.4464   28.3550    3.3299 H         1 UNK         0.0703 
     89 H89        27.6207   28.0994    0.5155 H         1 UNK         0.3081 
     90 H90        28.3408   30.2639   -0.8828 H         1 UNK         0.0719 
     91 H91        30.6846   31.2900    0.8036 H         1 UNK         0.0809 
     92 H92        30.4682   31.5398   -0.9260 H         1 UNK         0.0809 
     93 H93        29.3425   32.2599    0.2089 H         1 UNK         0.0809 
     94 H94        30.8589   29.0036   -0.0952 H         1 UNK         0.2990 
     95 H95        30.9606   26.8202   -2.1003 H         1 UNK         0.0690 
     96 H96        32.2275   27.5697   -0.1264 H         1 UNK         0.0788 
     97 H97        32.2597   25.8229   -0.1670 H         1 UNK         0.0788 
     98 H98        31.1855   26.6481    0.9554 H         1 UNK         0.0788 
     99 H99        29.6643   24.9942   -0.1619 H         1 UNK         0.2993 
    100 H100       27.6592   23.6148   -1.4360 H         1 UNK         0.0949 
    101 H101       27.9714   21.5440   -2.8178 H         1 UNK         0.0767 
    102 H102       27.8878   22.9706   -3.8362 H         1 UNK         0.0767 
    103 H103       29.4458   22.2189   -3.5106 H         1 UNK         0.0767 
    104 H104       30.4171   22.8377   -0.7829 H         1 UNK         0.3013 
    105 H105       25.9144   29.0922    4.6827 H         1 UNK         0.3121 
    106 H106       24.3936   30.4161    5.5512 H         1 UNK         0.0774 
    107 H107       22.1468   30.6414    4.6150 H         1 UNK         0.0815 
    108 H108       22.6852   30.1248    3.0275 H         1 UNK         0.0815 
    109 H109       22.6850   28.9884    4.3765 H         1 UNK         0.0815 
    110 H110       26.5615   31.4340    3.6666 H         1 UNK         0.2987 
    111 H111       25.8157   34.2745    3.8557 H         1 UNK         0.0949 
    112 H112       26.8563   32.9673    1.2707 H         1 UNK         0.0806 
    113 H113       25.2701   33.6826    1.5041 H         1 UNK         0.0806 
    114 H114       26.6909   34.7047    1.5466 H         1 UNK         0.0806 
    115 H115       28.6199   33.8364    2.0947 H         1 UNK         0.3010 
    116 H116       30.2779   34.6992    4.2850 H         1 UNK         0.0829 
    117 H117       30.5471   35.5546    1.9605 H         1 UNK         0.0813 
    118 H118       32.0333   34.8095    2.5188 H         1 UNK         0.0813 
    119 H119       30.9943   33.9433    1.3979 H         1 UNK         0.0813 
    120 H120       29.4932   31.5399    3.1749 H         1 UNK         0.3038 
    121 H121       30.0761   29.4987    3.6436 H         1 UNK         0.0769 
    122 H122       31.9904   30.5319    5.7968 H         1 UNK         0.0811 
    123 H123       31.4376   28.8769    5.5971 H         1 UNK         0.0811 
    124 H124       30.2900   30.1334    6.0312 H         1 UNK         0.0811 
    125 H125       32.9375   31.5489    3.4502 H         1 UNK         0.3204 
    126 H126       34.7832   31.5859    2.2549 H         1 UNK         0.0748 
    127 H127       35.0054   30.4141    0.0978 H         1 UNK         0.0771 
    128 H128       33.6356   29.3825    0.4649 H         1 UNK         0.0771 
    129 H129       33.4015   31.1149    0.2443 H         1 UNK         0.0771 
    130 H130       33.9606   28.1014    2.5746 H         1 UNK         0.2980 
    131 H131       36.7252   27.4332    3.3267 H         1 UNK         0.0545 
    132 H132       34.6651   28.0676    6.6808 H         1 UNK         0.3459 
    133 H133       34.1666   28.7228    5.1402 H         1 UNK         0.3459 
    134 H134       35.8229   25.8195    1.8880 H         1 UNK         0.0616 
    135 H135       35.8718   25.0501    3.4390 H         1 UNK         0.0616 
    136 H136       33.3075   25.4028    5.0623 H         1 UNK         0.0634 
    137 H137       33.9340   23.8790    4.4691 H         1 UNK         0.0634 
@<TRIPOS>BOND
     1    1    2 1    
     2    1   72 1    
     3    1   73 1    
     4    1   74 1    
     5    2    3 2    
     6    2    4 am   BACKBONE|DICT|INTERRES
     7    4    5 1    
     8    4   75 1    
     9    5    6 1    
    10    5   35 1    
    11    5   76 1    
    12    6    7 1    
    13    6   77 1    
    14    6   78 1    
    15    7    8 1    
    16    8    9 1    
    17    8   79 1    
    18    8   80 1    
    19    9   10 ar   
    20    9   14 ar   
    21   10   11 ar   
    22   10   81 1    
    23   11   12 ar   
    24   11   71 1    
    25   12   13 ar   
    26   12   82 1    
    27   13   14 ar   
    28   13   15 1    
    29   14   83 1    
    30   15   16 1    
    31   15   84 1    
    32   15   85 1    
    33   16   17 1    
    34   17   18 1    
    35   17   86 1    
    36   17   87 1    
    37   18   19 1    
    38   18   37 1    
    39   18   88 1    
    40   19   20 am   BACKBONE|DICT|INTERRES
    41   19   89 1    
    42   20   21 2    
    43   20   22 1    
    44   22   23 1    
    45   22   24 1    
    46   22   90 1    
    47   23   91 1    
    48   23   92 1    
    49   23   93 1    
    50   24   25 am   BACKBONE|DICT|INTERRES
    51   24   94 1    
    52   25   26 2    
    53   25   27 1    
    54   27   28 1    
    55   27   29 1    
    56   27   95 1    
    57   28   96 1    
    58   28   97 1    
    59   28   98 1    
    60   29   30 am   BACKBONE|DICT|INTERRES
    61   29   99 1    
    62   30   31 2    
    63   30   32 1    
    64   32   33 1    
    65   32   34 1    
    66   32  100 1    
    67   33  101 1    
    68   33  102 1    
    69   33  103 1    
    70   34   35 am   BACKBONE|DICT|INTERRES
    71   34  104 1    
    72   35   36 2    
    73   37   38 2    
    74   37   39 am   BACKBONE|DICT|INTERRES
    75   39   40 1    
    76   39  105 1    
    77   40   41 1    
    78   40   42 1    
    79   40  106 1    
    80   41  107 1    
    81   41  108 1    
    82   41  109 1    
    83   42   43 2    
    84   42   44 am   BACKBONE|DICT|INTERRES
    85   44   45 1    
    86   44  110 1    
    87   45   46 1    
    88   45   47 1    
    89   45  111 1    
    90   46  112 1    
    91   46  113 1    
    92   46  114 1    
    93   47   48 2    
    94   47   49 am   BACKBONE|DICT|INTERRES
    95   49   50 1    
    96   49  115 1    
    97   50   51 1    
    98   50   52 1    
    99   50  116 1    
   100   51  117 1    
   101   51  118 1    
   102   51  119 1    
   103   52   53 2    
   104   52   54 am   BACKBONE|DICT|INTERRES
   105   54   55 1    
   106   54  120 1    
   107   55   56 1    
   108   55   57 1    
   109   55  121 1    
   110   56  122 1    
   111   56  123 1    
   112   56  124 1    
   113   57   58 2    
   114   57   59 am   BACKBONE|DICT|INTERRES
   115   59   60 1    
   116   59  125 1    
   117   60   61 1    
   118   60   62 1    
   119   60  126 1    
   120   61  127 1    
   121   61  128 1    
   122   61  129 1    
   123   62   63 2    
   124   62   64 am   BACKBONE|DICT|INTERRES
   125   64   65 1    
   126   64  130 1    
   127   65   66 1    
   128   65   69 1    
   129   65  131 1    
   130   66   67 am   BACKBONE|DICT|INTERRES
   131   66   68 2    
   132   67  132 1    
   133   67  133 1    
   134   69   70 1    
   135   69  134 1    
   136   69  135 1    
   137   70   71 1    
   138   71  136 1    
   139   71  137 1    
@<TRIPOS>SUBSTRUCTURE
     1 UNK         1 GROUP             0       ****    0 ROOT    
