@<TRIPOS>MOLECULE
3R136
137   139    1
SMALL
USER_CHARGES


@<TRIPOS>ATOM
      1 CA         27.4887   21.0438   -3.3015 C.3       0 UNK        -0.1979 
      2 C          27.7690   21.2048   -1.8150 C.2       0 UNK         0.4864 
      3 O          27.0990   20.5712   -0.9976 O.2       0 UNK        -0.5359 
      4 N          28.7436   22.0564   -1.4637 N.am      1 UNK        -0.4318 
      5 CA         29.2239   22.3813   -0.1110 C.3       1 UNK         0.0824 
      6 C6         29.8384   21.1753    0.6511 C.3       12 UNK        -0.0944 
      7 S7         31.5288   20.8281    0.0559 S.3       12 UNK        -0.2672 
      8 C8         32.5568   21.2836    1.4953 C.3       12 UNK         0.0333 
      9 C9         32.3494   22.7266    1.9418 C.ar      12 UNK        -0.0807 
     10 C10        32.9122   23.7836    1.2190 C.ar      12 UNK        -0.0894 
     11 C11        32.7109   25.1077    1.6248 C.ar      12 UNK        -0.0804 
     12 C12        31.9319   25.3688    2.7555 C.ar      12 UNK        -0.0824 
     13 C13        31.3880   24.3218    3.5014 C.ar      12 UNK        -0.0762 
     14 C14        31.6034   23.0035    3.0919 C.ar      12 UNK        -0.0782 
     15 C15        30.5708   24.6059    4.7519 C.3       12 UNK         0.0230 
     16 S16        28.7927   24.4707    4.4004 S.3       12 UNK        -0.2608 
     17 C17        28.1816   26.1728    4.6243 C.3       12 UNK        -0.0989 
     18 CA         28.8008   27.2688    3.7136 C.3       5 UNK         0.0716 
     19 N          28.7741   26.9354    2.2820 N.am      5 UNK        -0.4135 
     20 C          29.2625   27.7126    1.3003 C.2       4 UNK         0.5031 
     21 O          29.8716   28.7635    1.4959 O.2       4 UNK        -0.5229 
     22 CA         28.9601   27.3029   -0.1511 C.3       4 UNK         0.0329 
     23 CB         30.0787   26.4294   -0.7391 C.3       4 UNK        -0.2001 
     24 N          27.6677   26.6317   -0.2948 N.am      4 UNK        -0.4303 
     25 C          26.4771   27.2148   -0.0970 C.2       3 UNK         0.5044 
     26 O          26.3428   28.3913    0.2406 O.2       3 UNK        -0.5152 
     27 CA         25.2332   26.3283   -0.2779 C.3       3 UNK         0.0319 
     28 CB         24.7986   26.3053   -1.7516 C.3       3 UNK        -0.2001 
     29 N          25.4533   24.9570    0.1897 N.am      3 UNK        -0.4354 
     30 C          25.5346   24.6111    1.4825 C.2       2 UNK         0.4964 
     31 O          25.3494   25.3956    2.4135 O.2       2 UNK        -0.5047 
     32 CA         25.9263   23.1529    1.7867 C.3       2 UNK         0.0288 
     33 CB         24.6943   22.2357    1.7279 C.3       2 UNK        -0.2113 
     34 N          26.9820   22.6103    0.9200 N.am      2 UNK        -0.4145 
     35 C          28.1972   23.1474    0.7460 C.2       1 UNK         0.5006 
     36 O          28.5226   24.2357    1.2128 O.2       1 UNK        -0.5103 
     37 C          28.1047   28.6118    4.0268 C.2       5 UNK         0.5055 
     38 O          28.5573   29.3287    4.9198 O.2       5 UNK        -0.5220 
     39 N          27.0110   28.9115    3.3108 N.am      6 UNK        -0.4450 
     40 CA         26.2499   30.1519    3.4518 C.3       6 UNK         0.0367 
     41 CB         24.7810   29.8947    3.0770 C.3       6 UNK        -0.1929 
     42 C          26.8348   31.2876    2.5982 C.2       6 UNK         0.5070 
     43 O          26.8210   32.4367    3.0402 O.2       6 UNK        -0.5237 
     44 N          27.3066   30.9605    1.3865 N.am      7 UNK        -0.4739 
     45 CA         27.8393   31.9263    0.4229 C.3       7 UNK         0.0276 
     46 CB         27.9179   31.2780   -0.9681 C.3       7 UNK        -0.1927 
     47 C          29.2044   32.5101    0.8245 C.2       7 UNK         0.5013 
     48 O          29.4179   33.7099    0.6410 O.2       7 UNK        -0.5193 
     49 N          30.1081   31.6651    1.3388 N.am      8 UNK        -0.4253 
     50 CA         31.4458   32.0683    1.7767 C.3       8 UNK         0.0242 
     51 CB         32.3584   30.8321    1.8076 C.3       8 UNK        -0.2000 
     52 C          31.4122   32.7307    3.1626 C.2       8 UNK         0.4948 
     53 O          30.5686   32.3825    3.9912 O.2       8 UNK        -0.5275 
     54 N          32.3717   33.6340    3.4099 N.am      9 UNK        -0.4246 
     55 CA         32.6032   34.2484    4.7230 C.3       9 UNK         0.0261 
     56 CB         33.5386   35.4593    4.5712 C.3       9 UNK        -0.1959 
     57 C          33.1707   33.2460    5.7451 C.2       9 UNK         0.5033 
     58 O          32.7914   33.2904    6.9163 O.2       9 UNK        -0.5390 
     59 N          34.0447   32.3500    5.2732 N.am      10 UNK        -0.4215 
     60 CA         34.5936   31.2120    5.9996 C.3       10 UNK         0.0240 
     61 CB         35.7416   31.6547    6.9259 C.3       10 UNK        -0.1982 
     62 C          35.0767   30.2068    4.9507 C.2       10 UNK         0.4970 
     63 O          35.7860   30.6063    4.0247 O.2       10 UNK        -0.4916 
     64 N          34.6774   28.9427    5.1034 N.am      11 UNK        -0.4279 
     65 CA         34.9800   27.8167    4.2124 C.3       11 UNK         0.1003 
     66 C          34.5454   26.5008    4.9109 C.2       11 UNK         0.5709 
     67 N          35.2272   25.3957    4.6467 N.am      11 UNK        -0.7358 
     68 O          33.5934   26.4762    5.6904 O.2       11 UNK        -0.4999 
     69 C69        34.3341   28.0008    2.8086 C.3       12 UNK        -0.0954 
     70 S70        34.9025   26.8120    1.5451 S.3       12 UNK        -0.2268 
     71 C71        33.3224   26.2545    0.8333 C.3       12 UNK         0.0203 
     72 H72        28.1464   21.6628   -3.9114 H         1 UNK         0.0888 
     73 H73        27.6304   20.0049   -3.5981 H         1 UNK         0.0888 
     74 H74        26.4588   21.3236   -3.5214 H         1 UNK         0.0888 
     75 H75        29.2340   22.5431   -2.2013 H         1 UNK         0.3017 
     76 H76        30.0285   23.1019   -0.2697 H         1 UNK         0.0873 
     77 H77        29.8715   21.3546    1.7261 H         1 UNK         0.0745 
     78 H78        29.2324   20.2767    0.5316 H         1 UNK         0.0745 
     79 H79        32.3445   20.5939    2.3138 H         1 UNK         0.0705 
     80 H80        33.6064   21.1332    1.2386 H         1 UNK         0.0705 
     81 H81        33.5023   23.5735    0.3375 H         1 UNK         0.1334 
     82 H82        31.7563   26.3870    3.0661 H         1 UNK         0.1417 
     83 H83        31.1743   22.1935    3.6658 H         1 UNK         0.1562 
     84 H84        30.8141   25.5862    5.1635 H         1 UNK         0.0748 
     85 H85        30.8313   23.8842    5.5274 H         1 UNK         0.0748 
     86 H86        27.1002   26.1315    4.4764 H         1 UNK         0.0940 
     87 H87        28.3253   26.4344    5.6749 H         1 UNK         0.0940 
     88 H88        29.8494   27.3927    3.9862 H         1 UNK         0.0703 
     89 H89        28.3913   26.0272    2.0317 H         1 UNK         0.3081 
     90 H90        28.9115   28.2142   -0.7479 H         1 UNK         0.0719 
     91 H91        30.3208   25.5837   -0.0960 H         1 UNK         0.0809 
     92 H92        29.8122   26.0421   -1.7224 H         1 UNK         0.0809 
     93 H93        30.9892   27.0143   -0.8653 H         1 UNK         0.0809 
     94 H94        27.6937   25.6399   -0.4786 H         1 UNK         0.2990 
     95 H95        24.4237   26.7690    0.3083 H         1 UNK         0.0690 
     96 H96        23.8766   25.7388   -1.8840 H         1 UNK         0.0788 
     97 H97        25.5608   25.8624   -2.3941 H         1 UNK         0.0788 
     98 H98        24.6113   27.3160   -2.1174 H         1 UNK         0.0788 
     99 H99        25.6025   24.2453   -0.5107 H         1 UNK         0.2993 
    100 H100       26.3150   23.1366    2.8072 H         1 UNK         0.0949 
    101 H101       24.9366   21.2262    2.0608 H         1 UNK         0.0767 
    102 H102       23.8986   22.6070    2.3754 H         1 UNK         0.0767 
    103 H103       24.2897   22.1670    0.7173 H         1 UNK         0.0767 
    104 H104       26.7942   21.7343    0.4368 H         1 UNK         0.3013 
    105 H105       26.7172   28.2779    2.5791 H         1 UNK         0.3121 
    106 H106       26.2766   30.4720    4.4959 H         1 UNK         0.0774 
    107 H107       24.6748   29.5770    2.0392 H         1 UNK         0.0815 
    108 H108       24.1842   30.7991    3.2027 H         1 UNK         0.0815 
    109 H109       24.3393   29.1247    3.7098 H         1 UNK         0.0815 
    110 H110       27.2141   30.0001    1.0712 H         1 UNK         0.2987 
    111 H111       27.1330   32.7577    0.3637 H         1 UNK         0.0949 
    112 H112       28.6511   30.4728   -0.9955 H         1 UNK         0.0806 
    113 H113       26.9548   30.8682   -1.2736 H         1 UNK         0.0806 
    114 H114       28.2134   32.0100   -1.7209 H         1 UNK         0.0806 
    115 H115       29.8594   30.6883    1.4763 H         1 UNK         0.3010 
    116 H116       31.8501   32.7790    1.0523 H         1 UNK         0.0829 
    117 H117       32.3788   30.3253    0.8424 H         1 UNK         0.0813 
    118 H118       33.3849   31.1076    2.0518 H         1 UNK         0.0813 
    119 H119       32.0258   30.1108    2.5554 H         1 UNK         0.0813 
    120 H120       33.0170   33.8782    2.6718 H         1 UNK         0.3038 
    121 H121       31.6444   34.6055    5.1057 H         1 UNK         0.0769 
    122 H122       34.5140   35.1738    4.1752 H         1 UNK         0.0811 
    123 H123       33.7077   35.9425    5.5347 H         1 UNK         0.0811 
    124 H124       33.1116   36.2097    3.9056 H         1 UNK         0.0811 
    125 H125       34.3090   32.3860    4.2972 H         1 UNK         0.3204 
    126 H126       33.8002   30.7579    6.5977 H         1 UNK         0.0748 
    127 H127       36.1722   30.8000    7.4491 H         1 UNK         0.0771 
    128 H128       36.5455   32.1371    6.3682 H         1 UNK         0.0771 
    129 H129       35.3937   32.3563    7.6843 H         1 UNK         0.0771 
    130 H130       34.1028   28.6849    5.8960 H         1 UNK         0.2980 
    131 H131       36.0652   27.7871    4.0971 H         1 UNK         0.0545 
    132 H132       35.9830   25.4009    3.9801 H         1 UNK         0.3459 
    133 H133       34.9485   24.5329    5.0852 H         1 UNK         0.3459 
    134 H134       34.5838   28.9819    2.4071 H         1 UNK         0.0616 
    135 H135       33.2481   27.9932    2.8885 H         1 UNK         0.0616 
    136 H136       33.4951   25.9439   -0.1981 H         1 UNK         0.0634 
    137 H137       32.6288   27.0948    0.7852 H         1 UNK         0.0634 
@<TRIPOS>BOND
     1    1    2 1    
     2    1   72 1    
     3    1   73 1    
     4    1   74 1    
     5    2    3 2    
     6    2    4 am   BACKBONE|DICT|INTERRES
     7    4    5 1    
     8    4   75 1    
     9    5    6 1    
    10    5   35 1    
    11    5   76 1    
    12    6    7 1    
    13    6   77 1    
    14    6   78 1    
    15    7    8 1    
    16    8    9 1    
    17    8   79 1    
    18    8   80 1    
    19    9   10 ar   
    20    9   14 ar   
    21   10   11 ar   
    22   10   81 1    
    23   11   12 ar   
    24   11   71 1    
    25   12   13 ar   
    26   12   82 1    
    27   13   14 ar   
    28   13   15 1    
    29   14   83 1    
    30   15   16 1    
    31   15   84 1    
    32   15   85 1    
    33   16   17 1    
    34   17   18 1    
    35   17   86 1    
    36   17   87 1    
    37   18   19 1    
    38   18   37 1    
    39   18   88 1    
    40   19   20 am   BACKBONE|DICT|INTERRES
    41   19   89 1    
    42   20   21 2    
    43   20   22 1    
    44   22   23 1    
    45   22   24 1    
    46   22   90 1    
    47   23   91 1    
    48   23   92 1    
    49   23   93 1    
    50   24   25 am   BACKBONE|DICT|INTERRES
    51   24   94 1    
    52   25   26 2    
    53   25   27 1    
    54   27   28 1    
    55   27   29 1    
    56   27   95 1    
    57   28   96 1    
    58   28   97 1    
    59   28   98 1    
    60   29   30 am   BACKBONE|DICT|INTERRES
    61   29   99 1    
    62   30   31 2    
    63   30   32 1    
    64   32   33 1    
    65   32   34 1    
    66   32  100 1    
    67   33  101 1    
    68   33  102 1    
    69   33  103 1    
    70   34   35 am   BACKBONE|DICT|INTERRES
    71   34  104 1    
    72   35   36 2    
    73   37   38 2    
    74   37   39 am   BACKBONE|DICT|INTERRES
    75   39   40 1    
    76   39  105 1    
    77   40   41 1    
    78   40   42 1    
    79   40  106 1    
    80   41  107 1    
    81   41  108 1    
    82   41  109 1    
    83   42   43 2    
    84   42   44 am   BACKBONE|DICT|INTERRES
    85   44   45 1    
    86   44  110 1    
    87   45   46 1    
    88   45   47 1    
    89   45  111 1    
    90   46  112 1    
    91   46  113 1    
    92   46  114 1    
    93   47   48 2    
    94   47   49 am   BACKBONE|DICT|INTERRES
    95   49   50 1    
    96   49  115 1    
    97   50   51 1    
    98   50   52 1    
    99   50  116 1    
   100   51  117 1    
   101   51  118 1    
   102   51  119 1    
   103   52   53 2    
   104   52   54 am   BACKBONE|DICT|INTERRES
   105   54   55 1    
   106   54  120 1    
   107   55   56 1    
   108   55   57 1    
   109   55  121 1    
   110   56  122 1    
   111   56  123 1    
   112   56  124 1    
   113   57   58 2    
   114   57   59 am   BACKBONE|DICT|INTERRES
   115   59   60 1    
   116   59  125 1    
   117   60   61 1    
   118   60   62 1    
   119   60  126 1    
   120   61  127 1    
   121   61  128 1    
   122   61  129 1    
   123   62   63 2    
   124   62   64 am   BACKBONE|DICT|INTERRES
   125   64   65 1    
   126   64  130 1    
   127   65   66 1    
   128   65   69 1    
   129   65  131 1    
   130   66   67 am   BACKBONE|DICT|INTERRES
   131   66   68 2    
   132   67  132 1    
   133   67  133 1    
   134   69   70 1    
   135   69  134 1    
   136   69  135 1    
   137   70   71 1    
   138   71  136 1    
   139   71  137 1    
@<TRIPOS>SUBSTRUCTURE
     1 UNK         1 GROUP             0       ****    0 ROOT    
