@<TRIPOS>MOLECULE
3R136
137   139    1
SMALL
USER_CHARGES


@<TRIPOS>ATOM
      1 CA         25.6874   25.1767    4.9185 C.3       0 UNK        -0.1979 
      2 C          26.2330   23.8793    4.3444 C.2       0 UNK         0.4864 
      3 O          25.6807   22.8108    4.6110 O.2       0 UNK        -0.5359 
      4 N          27.3045   23.9680    3.5460 N.am      1 UNK        -0.4318 
      5 CA         27.8509   22.8438    2.7753 C.3       1 UNK         0.0824 
      6 C6         29.3333   23.0576    2.3915 C.3       12 UNK        -0.0944 
      7 S7         30.4456   23.0929    3.8358 S.3       12 UNK        -0.2672 
      8 C8         32.0493   22.7250    3.0533 C.3       12 UNK         0.0333 
      9 C9         32.6035   23.9116    2.2733 C.ar      12 UNK        -0.0807 
     10 C10        33.6099   24.7106    2.8239 C.ar      12 UNK        -0.0894 
     11 C11        34.1657   25.7712    2.0997 C.ar      12 UNK        -0.0804 
     12 C12        33.6722   26.0477    0.8164 C.ar      12 UNK        -0.0824 
     13 C13        32.6621   25.2604    0.2550 C.ar      12 UNK        -0.0762 
     14 C14        32.1472   24.1842    0.9812 C.ar      12 UNK        -0.0782 
     15 C15        32.1594   25.5380   -1.1562 C.3       12 UNK         0.0230 
     16 S16        30.3838   25.9433   -1.1998 S.3       12 UNK        -0.2608 
     17 C17        30.3704   27.6075   -0.4431 C.3       12 UNK        -0.0989 
     18 CA         29.0271   27.9757    0.2493 C.3       5 UNK         0.0716 
     19 N          27.8765   27.8831   -0.6534 N.am      5 UNK        -0.4135 
     20 C          27.6480   28.7538   -1.6469 C.2       4 UNK         0.5031 
     21 O          28.2996   29.7878   -1.8022 O.2       4 UNK        -0.5229 
     22 CA         26.5549   28.4323   -2.6808 C.3       4 UNK         0.0329 
     23 CB         27.1967   27.8431   -3.9487 C.3       4 UNK        -0.2001 
     24 N          25.5278   27.5069   -2.2079 N.am      4 UNK        -0.4303 
     25 C          24.4070   27.8648   -1.5652 C.2       3 UNK         0.5044 
     26 O          24.1410   29.0220   -1.2387 O.2       3 UNK        -0.5152 
     27 CA         23.4024   26.7372   -1.2484 C.3       3 UNK         0.0319 
     28 CB         22.3162   26.6644   -2.3339 C.3       3 UNK        -0.2001 
     29 N          24.0470   25.4252   -1.1187 N.am      3 UNK        -0.4354 
     30 C          24.8624   25.1090   -0.1057 C.2       2 UNK         0.4964 
     31 O          25.0243   25.8357    0.8780 O.2       2 UNK        -0.5047 
     32 CA         25.6579   23.8018   -0.2360 C.3       2 UNK         0.0288 
     33 CB         26.4805   23.7481   -1.5399 C.3       2 UNK        -0.2113 
     34 N          26.5633   23.7264    0.9006 N.am      2 UNK        -0.4145 
     35 C          27.0039   22.6205    1.5076 C.2       1 UNK         0.5006 
     36 O          26.7575   21.4759    1.1233 O.2       1 UNK        -0.5103 
     37 C          28.7944   27.1623    1.5334 C.2       5 UNK         0.5055 
     38 O          27.9444   26.2678    1.5704 O.2       5 UNK        -0.5220 
     39 N          29.5814   27.4824    2.5635 N.am      6 UNK        -0.4450 
     40 CA         29.6230   26.8180    3.8581 C.3       6 UNK         0.0367 
     41 CB         28.5386   27.3938    4.7864 C.3       6 UNK        -0.1929 
     42 C          31.0177   27.0396    4.4458 C.2       6 UNK         0.5070 
     43 O          31.7086   27.9706    4.0252 O.2       6 UNK        -0.5237 
     44 N          31.3898   26.2215    5.4369 N.am      7 UNK        -0.4739 
     45 CA         32.6556   26.2982    6.1742 C.3       7 UNK         0.0276 
     46 CB         32.9168   24.9390    6.8493 C.3       7 UNK        -0.1927 
     47 C          32.6828   27.4768    7.1716 C.2       7 UNK         0.5013 
     48 O          32.7969   27.2709    8.3814 O.2       7 UNK        -0.5193 
     49 N          32.5569   28.6913    6.6341 N.am      8 UNK        -0.4253 
     50 CA         32.5485   29.9787    7.3210 C.3       8 UNK         0.0242 
     51 CB         31.1777   30.2111    7.9942 C.3       8 UNK        -0.2000 
     52 C          32.9132   31.0556    6.2854 C.2       8 UNK         0.4948 
     53 O          33.5696   30.7394    5.2911 O.2       8 UNK        -0.5275 
     54 N          32.4545   32.2999    6.4887 N.am      9 UNK        -0.4246 
     55 CA         32.6491   33.4302    5.5660 C.3       9 UNK         0.0261 
     56 CB         32.0259   34.6975    6.1728 C.3       9 UNK        -0.1959 
     57 C          32.1010   33.1883    4.1443 C.2       9 UNK         0.5033 
     58 O          32.6442   33.7344    3.1827 O.2       9 UNK        -0.5390 
     59 N          31.0760   32.3305    4.0326 N.am      10 UNK        -0.4215 
     60 CA         30.4910   31.8427    2.7804 C.3       10 UNK         0.0240 
     61 CB         29.2321   31.0257    3.1102 C.3       10 UNK        -0.1982 
     62 C          31.4563   31.0246    1.8962 C.2       10 UNK         0.4970 
     63 O          31.1599   30.8386    0.7166 O.2       10 UNK        -0.4916 
     64 N          32.5851   30.5640    2.4532 N.am      11 UNK        -0.4279 
     65 CA         33.7086   29.9797    1.7075 C.3       11 UNK         0.1003 
     66 C          34.4312   30.9993    0.7727 C.2       11 UNK         0.5709 
     67 N          34.3326   32.3047    1.0079 N.am      11 UNK        -0.7358 
     68 O          35.0726   30.6034   -0.1973 O.2       11 UNK        -0.4999 
     69 C69        34.6975   29.2916    2.6856 C.3       12 UNK        -0.0954 
     70 S70        35.8237   28.0892    1.9040 S.3       12 UNK        -0.2268 
     71 C71        35.3457   26.5253    2.7185 C.3       12 UNK         0.0203 
     72 H72        24.6558   25.0467    5.2451 H         1 UNK         0.0888 
     73 H73        26.2783   25.4922    5.7775 H         1 UNK         0.0888 
     74 H74        25.6989   25.9676    4.1686 H         1 UNK         0.0888 
     75 H75        27.6803   24.8784    3.3131 H         1 UNK         0.3017 
     76 H76        27.7842   21.9345    3.3771 H         1 UNK         0.0873 
     77 H77        29.4527   23.9888    1.8350 H         1 UNK         0.0745 
     78 H78        29.6656   22.2550    1.7299 H         1 UNK         0.0745 
     79 H79        32.7521   22.4315    3.8345 H         1 UNK         0.0705 
     80 H80        31.9524   21.8580    2.3982 H         1 UNK         0.0705 
     81 H81        33.9867   24.4848    3.8119 H         1 UNK         0.1334 
     82 H82        34.0903   26.8538    0.2315 H         1 UNK         0.1417 
     83 H83        31.3892   23.5587    0.5315 H         1 UNK         0.1562 
     84 H84        32.3310   24.6531   -1.7706 H         1 UNK         0.0748 
     85 H85        32.7217   26.3480   -1.6234 H         1 UNK         0.0748 
     86 H86        30.5901   28.3337   -1.2271 H         1 UNK         0.0940 
     87 H87        31.1981   27.6966    0.2627 H         1 UNK         0.0940 
     88 H88        29.0946   29.0169    0.5689 H         1 UNK         0.0703 
     89 H89        27.2833   27.0768   -0.5139 H         1 UNK         0.3081 
     90 H90        26.0799   29.3769   -2.9554 H         1 UNK         0.0719 
     91 H91        27.6971   26.8950   -3.7459 H         1 UNK         0.0809 
     92 H92        26.4542   27.6729   -4.7286 H         1 UNK         0.0809 
     93 H93        27.9446   28.5227   -4.3600 H         1 UNK         0.0809 
     94 H94        25.6513   26.5336   -2.4424 H         1 UNK         0.2990 
     95 H95        22.9199   26.9814   -0.2993 H         1 UNK         0.0690 
     96 H96        21.5611   25.9167   -2.0903 H         1 UNK         0.0788 
     97 H97        22.7342   26.4157   -3.3102 H         1 UNK         0.0788 
     98 H98        21.8013   27.6211   -2.4343 H         1 UNK         0.0788 
     99 H99        23.9287   24.7760   -1.8838 H         1 UNK         0.2993 
    100 H100       24.9519   22.9692   -0.2013 H         1 UNK         0.0949 
    101 H101       27.0761   22.8363   -1.5904 H         1 UNK         0.0767 
    102 H102       25.8404   23.7555   -2.4223 H         1 UNK         0.0767 
    103 H103       27.1670   24.5926   -1.6183 H         1 UNK         0.0767 
    104 H104       26.7969   24.6347    1.2974 H         1 UNK         0.3013 
    105 H105       30.3228   28.1640    2.4501 H         1 UNK         0.3121 
    106 H106       29.4689   25.7505    3.7156 H         1 UNK         0.0774 
    107 H107       28.4509   26.8000    5.6966 H         1 UNK         0.0815 
    108 H108       28.7658   28.4152    5.0918 H         1 UNK         0.0815 
    109 H109       27.5618   27.4063    4.3054 H         1 UNK         0.0815 
    110 H110       30.7503   25.4965    5.7295 H         1 UNK         0.2987 
    111 H111       33.4600   26.4721    5.4572 H         1 UNK         0.0949 
    112 H112       32.1478   24.6989    7.5845 H         1 UNK         0.0806 
    113 H113       32.9440   24.1306    6.1184 H         1 UNK         0.0806 
    114 H114       33.8764   24.9384    7.3679 H         1 UNK         0.0806 
    115 H115       32.4873   28.7492    5.6195 H         1 UNK         0.3010 
    116 H116       33.3316   29.9767    8.0817 H         1 UNK         0.0829 
    117 H117       30.9255   29.3943    8.6707 H         1 UNK         0.0813 
    118 H118       31.1727   31.1218    8.5938 H         1 UNK         0.0813 
    119 H119       30.3751   30.2878    7.2596 H         1 UNK         0.0813 
    120 H120       31.9250   32.4871    7.3283 H         1 UNK         0.3038 
    121 H121       33.7252   33.5900    5.4709 H         1 UNK         0.0769 
    122 H122       30.9512   34.5880    6.3235 H         1 UNK         0.0811 
    123 H123       32.1769   35.5577    5.5188 H         1 UNK         0.0811 
    124 H124       32.4781   34.9422    7.1341 H         1 UNK         0.0811 
    125 H125       30.7023   31.9395    4.8843 H         1 UNK         0.3204 
    126 H126       30.1900   32.7162    2.1983 H         1 UNK         0.0748 
    127 H127       28.7255   30.6987    2.2019 H         1 UNK         0.0771 
    128 H128       29.4767   30.1378    3.6916 H         1 UNK         0.0771 
    129 H129       28.5132   31.6141    3.6807 H         1 UNK         0.0771 
    130 H130       32.7585   30.7241    3.4397 H         1 UNK         0.2980 
    131 H131       33.2848   29.2065    1.0642 H         1 UNK         0.0545 
    132 H132       33.7868   32.6583    1.7849 H         1 UNK         0.3459 
    133 H133       34.7971   32.9499    0.3892 H         1 UNK         0.3459 
    134 H134       34.1391   28.7703    3.4630 H         1 UNK         0.0616 
    135 H135       35.2980   30.0364    3.2110 H         1 UNK         0.0616 
    136 H136       35.1568   26.7161    3.7753 H         1 UNK         0.0634 
    137 H137       36.2117   25.8633    2.6839 H         1 UNK         0.0634 
@<TRIPOS>BOND
     1    1    2 1    
     2    1   72 1    
     3    1   73 1    
     4    1   74 1    
     5    2    3 2    
     6    2    4 am   BACKBONE|DICT|INTERRES
     7    4    5 1    
     8    4   75 1    
     9    5    6 1    
    10    5   35 1    
    11    5   76 1    
    12    6    7 1    
    13    6   77 1    
    14    6   78 1    
    15    7    8 1    
    16    8    9 1    
    17    8   79 1    
    18    8   80 1    
    19    9   10 ar   
    20    9   14 ar   
    21   10   11 ar   
    22   10   81 1    
    23   11   12 ar   
    24   11   71 1    
    25   12   13 ar   
    26   12   82 1    
    27   13   14 ar   
    28   13   15 1    
    29   14   83 1    
    30   15   16 1    
    31   15   84 1    
    32   15   85 1    
    33   16   17 1    
    34   17   18 1    
    35   17   86 1    
    36   17   87 1    
    37   18   19 1    
    38   18   37 1    
    39   18   88 1    
    40   19   20 am   BACKBONE|DICT|INTERRES
    41   19   89 1    
    42   20   21 2    
    43   20   22 1    
    44   22   23 1    
    45   22   24 1    
    46   22   90 1    
    47   23   91 1    
    48   23   92 1    
    49   23   93 1    
    50   24   25 am   BACKBONE|DICT|INTERRES
    51   24   94 1    
    52   25   26 2    
    53   25   27 1    
    54   27   28 1    
    55   27   29 1    
    56   27   95 1    
    57   28   96 1    
    58   28   97 1    
    59   28   98 1    
    60   29   30 am   BACKBONE|DICT|INTERRES
    61   29   99 1    
    62   30   31 2    
    63   30   32 1    
    64   32   33 1    
    65   32   34 1    
    66   32  100 1    
    67   33  101 1    
    68   33  102 1    
    69   33  103 1    
    70   34   35 am   BACKBONE|DICT|INTERRES
    71   34  104 1    
    72   35   36 2    
    73   37   38 2    
    74   37   39 am   BACKBONE|DICT|INTERRES
    75   39   40 1    
    76   39  105 1    
    77   40   41 1    
    78   40   42 1    
    79   40  106 1    
    80   41  107 1    
    81   41  108 1    
    82   41  109 1    
    83   42   43 2    
    84   42   44 am   BACKBONE|DICT|INTERRES
    85   44   45 1    
    86   44  110 1    
    87   45   46 1    
    88   45   47 1    
    89   45  111 1    
    90   46  112 1    
    91   46  113 1    
    92   46  114 1    
    93   47   48 2    
    94   47   49 am   BACKBONE|DICT|INTERRES
    95   49   50 1    
    96   49  115 1    
    97   50   51 1    
    98   50   52 1    
    99   50  116 1    
   100   51  117 1    
   101   51  118 1    
   102   51  119 1    
   103   52   53 2    
   104   52   54 am   BACKBONE|DICT|INTERRES
   105   54   55 1    
   106   54  120 1    
   107   55   56 1    
   108   55   57 1    
   109   55  121 1    
   110   56  122 1    
   111   56  123 1    
   112   56  124 1    
   113   57   58 2    
   114   57   59 am   BACKBONE|DICT|INTERRES
   115   59   60 1    
   116   59  125 1    
   117   60   61 1    
   118   60   62 1    
   119   60  126 1    
   120   61  127 1    
   121   61  128 1    
   122   61  129 1    
   123   62   63 2    
   124   62   64 am   BACKBONE|DICT|INTERRES
   125   64   65 1    
   126   64  130 1    
   127   65   66 1    
   128   65   69 1    
   129   65  131 1    
   130   66   67 am   BACKBONE|DICT|INTERRES
   131   66   68 2    
   132   67  132 1    
   133   67  133 1    
   134   69   70 1    
   135   69  134 1    
   136   69  135 1    
   137   70   71 1    
   138   71  136 1    
   139   71  137 1    
@<TRIPOS>SUBSTRUCTURE
     1 UNK         1 GROUP             0       ****    0 ROOT    
