@<TRIPOS>MOLECULE
3R136
137   139    1
SMALL
USER_CHARGES


@<TRIPOS>ATOM
      1 CA         28.0899   20.2124   -3.6479 C.3       0 UNK        -0.1979 
      2 C          28.0916   21.6357   -3.1093 C.2       0 UNK         0.4864 
      3 O          27.7588   22.5678   -3.8435 O.2       0 UNK        -0.5359 
      4 N          28.4722   21.8098   -1.8377 N.am      1 UNK        -0.4318 
      5 CA         28.4636   23.0909   -1.1255 C.3       1 UNK         0.0824 
      6 C6         29.4261   23.0704    0.0885 C.3       12 UNK        -0.0944 
      7 S7         29.0918   21.7469    1.3089 S.3       12 UNK        -0.2672 
      8 C8         29.1418   22.6637    2.8924 C.3       12 UNK         0.0333 
      9 C9         30.5384   23.0038    3.4270 C.ar      12 UNK        -0.0807 
     10 C10        30.6679   23.4040    4.7625 C.ar      12 UNK        -0.0894 
     11 C11        31.9159   23.7447    5.2963 C.ar      12 UNK        -0.0804 
     12 C12        33.0487   23.6855    4.4807 C.ar      12 UNK        -0.0824 
     13 C13        32.9389   23.3045    3.1415 C.ar      12 UNK        -0.0762 
     14 C14        31.6894   22.9475    2.6310 C.ar      12 UNK        -0.0782 
     15 C15        34.1692   23.2741    2.2426 C.3       12 UNK         0.0230 
     16 S16        33.9590   24.2648    0.7226 S.3       12 UNK        -0.2608 
     17 C17        33.5264   25.9114    1.3787 C.3       12 UNK        -0.0989 
     18 CA         32.0548   26.3073    1.0526 C.3       5 UNK         0.0716 
     19 N          31.2272   26.4554    2.2584 N.am      5 UNK        -0.4135 
     20 C          29.8939   26.6093    2.2769 C.2       4 UNK         0.5031 
     21 O          29.1907   26.6359    1.2625 O.2       4 UNK        -0.5229 
     22 CA         29.2458   26.6791    3.6748 C.3       4 UNK         0.0329 
     23 CB         29.8557   27.7834    4.5616 C.3       4 UNK        -0.2001 
     24 N          27.7825   26.7659    3.6078 N.am      4 UNK        -0.4303 
     25 C          27.0298   27.8410    3.3450 C.2       3 UNK         0.5044 
     26 O          27.4607   28.9883    3.2422 O.2       3 UNK        -0.5152 
     27 CA         25.5336   27.5712    3.1035 C.3       3 UNK         0.0319 
     28 CB         24.6779   28.8452    3.2427 C.3       3 UNK        -0.2001 
     29 N          25.3387   27.0146    1.7652 N.am      3 UNK        -0.4354 
     30 C          25.6668   25.7709    1.3913 C.2       2 UNK         0.4964 
     31 O          26.0387   24.9023    2.1846 O.2       2 UNK        -0.5047 
     32 CA         25.5934   25.4450   -0.1096 C.3       2 UNK         0.0288 
     33 CB         25.3358   26.6724   -1.0107 C.3       2 UNK        -0.2113 
     34 N          26.8558   24.8276   -0.5120 N.am      2 UNK        -0.4145 
     35 C          27.0302   23.5215   -0.7452 C.2       1 UNK         0.5006 
     36 O          26.1262   22.6824   -0.6737 O.2       1 UNK        -0.5103 
     37 C          31.9926   27.5632    0.1633 C.2       5 UNK         0.5055 
     38 O          31.6940   27.4558   -1.0276 O.2       5 UNK        -0.5220 
     39 N          32.2430   28.7301    0.7695 N.am      6 UNK        -0.4450 
     40 CA         31.9559   30.0341    0.1888 C.3       6 UNK         0.0367 
     41 CB         33.0396   31.0384    0.6164 C.3       6 UNK        -0.1929 
     42 C          30.5636   30.4125    0.7021 C.2       6 UNK         0.5070 
     43 O          30.4220   30.7140    1.8909 O.2       6 UNK        -0.5237 
     44 N          29.5680   30.2983   -0.1871 N.am      7 UNK        -0.4739 
     45 CA         28.1332   30.3816    0.0960 C.3       7 UNK         0.0276 
     46 CB         27.3486   30.2558   -1.2208 C.3       7 UNK        -0.1927 
     47 C          27.7336   31.6567    0.8569 C.2       7 UNK         0.5013 
     48 O          27.8312   32.7538    0.3031 O.2       7 UNK        -0.5193 
     49 N          27.3139   31.4673    2.1141 N.am      8 UNK        -0.4253 
     50 CA         26.9317   32.4736    3.1077 C.3       8 UNK         0.0242 
     51 CB         25.6884   33.2642    2.6465 C.3       8 UNK        -0.2000 
     52 C          28.0929   33.3867    3.5506 C.2       8 UNK         0.4948 
     53 O          27.8305   34.4615    4.0945 O.2       8 UNK        -0.5275 
     54 N          29.3430   32.9534    3.3322 N.am      9 UNK        -0.4246 
     55 CA         30.5530   33.6944    3.6757 C.3       9 UNK         0.0261 
     56 CB         31.3343   34.0498    2.4000 C.3       9 UNK        -0.1959 
     57 C          31.4172   32.9183    4.6762 C.2       9 UNK         0.5033 
     58 O          31.6655   33.4472    5.7616 O.2       9 UNK        -0.5390 
     59 N          31.8761   31.7064    4.3228 N.am      10 UNK        -0.4215 
     60 CA         32.8390   30.9536    5.1353 C.3       10 UNK         0.0240 
     61 CB         34.2290   31.6246    5.0703 C.3       10 UNK        -0.1982 
     62 C          32.9700   29.4934    4.6904 C.2       10 UNK         0.4970 
     63 O          32.7748   29.1777    3.5151 O.2       10 UNK        -0.4916 
     64 N          33.3684   28.6405    5.6404 N.am      11 UNK        -0.4279 
     65 CA         33.9141   27.2998    5.3874 C.3       11 UNK         0.1003 
     66 C          35.3933   27.3807    4.9124 C.2       11 UNK         0.5709 
     67 N          35.8785   26.3674    4.2086 N.am      11 UNK        -0.7358 
     68 O          36.1162   28.3326    5.2026 O.2       11 UNK        -0.4999 
     69 C69        33.7822   26.3930    6.6391 C.3       12 UNK        -0.0954 
     70 S70        32.0481   25.9497    6.9997 S.3       12 UNK        -0.2268 
     71 C71        32.0426   24.1422    6.7618 C.3       12 UNK         0.0203 
     72 H72        28.7557   20.1350   -4.5071 H         1 UNK         0.0888 
     73 H73        28.4189   19.4928   -2.8983 H         1 UNK         0.0888 
     74 H74        27.0861   19.9338   -3.9675 H         1 UNK         0.0888 
     75 H75        28.6986   21.0073   -1.2672 H         1 UNK         0.3017 
     76 H76        28.8413   23.8465   -1.8187 H         1 UNK         0.0873 
     77 H77        30.4435   22.9357   -0.2809 H         1 UNK         0.0745 
     78 H78        29.4279   24.0394    0.5886 H         1 UNK         0.0745 
     79 H79        28.5602   23.5812    2.7928 H         1 UNK         0.0705 
     80 H80        28.6239   22.0552    3.6352 H         1 UNK         0.0705 
     81 H81        29.7902   23.4490    5.3933 H         1 UNK         0.1334 
     82 H82        34.0174   23.9269    4.8924 H         1 UNK         0.1417 
     83 H83        31.6353   22.6387    1.5996 H         1 UNK         0.1562 
     84 H84        34.3752   22.2402    1.9621 H         1 UNK         0.0748 
     85 H85        35.0534   23.6283    2.7740 H         1 UNK         0.0748 
     86 H86        34.2516   26.6172    0.9669 H         1 UNK         0.0940 
     87 H87        33.7093   25.9301    2.4508 H         1 UNK         0.0940 
     88 H88        31.5903   25.5066    0.4730 H         1 UNK         0.0703 
     89 H89        31.7136   26.4328    3.1403 H         1 UNK         0.3081 
     90 H90        29.4465   25.7266    4.1607 H         1 UNK         0.0719 
     91 H91        29.2902   27.9186    5.4833 H         1 UNK         0.0809 
     92 H92        29.9013   28.7444    4.0468 H         1 UNK         0.0809 
     93 H93        30.8708   27.5233    4.8496 H         1 UNK         0.0809 
     94 H94        27.3053   25.8734    3.5415 H         1 UNK         0.2990 
     95 H95        25.1909   26.8496    3.8483 H         1 UNK         0.0690 
     96 H96        23.6160   28.6213    3.1401 H         1 UNK         0.0788 
     97 H97        24.9349   29.5951    2.4934 H         1 UNK         0.0788 
     98 H98        24.8184   29.3033    4.2227 H         1 UNK         0.0788 
     99 H99        25.0557   27.6650    1.0470 H         1 UNK         0.2993 
    100 H100       24.7630   24.7481   -0.2418 H         1 UNK         0.0949 
    101 H101       25.3189   26.3845   -2.0622 H         1 UNK         0.0767 
    102 H102       24.3694   27.1310   -0.7968 H         1 UNK         0.0767 
    103 H103       26.1075   27.4344   -0.8937 H         1 UNK         0.0767 
    104 H104       27.6652   25.4347   -0.5008 H         1 UNK         0.3013 
    105 H105       32.4269   28.7406    1.7723 H         1 UNK         0.3121 
    106 H106       31.9515   29.9831   -0.9022 H         1 UNK         0.0774 
    107 H107       32.8580   32.0165    0.1704 H         1 UNK         0.0815 
    108 H108       33.0811   31.1688    1.6975 H         1 UNK         0.0815 
    109 H109       34.0263   30.7132    0.2870 H         1 UNK         0.0815 
    110 H110       29.8110   30.0341   -1.1309 H         1 UNK         0.2987 
    111 H111       27.8868   29.5123    0.7087 H         1 UNK         0.0949 
    112 H112       27.5821   31.0698   -1.9084 H         1 UNK         0.0806 
    113 H113       27.5672   29.3158   -1.7275 H         1 UNK         0.0806 
    114 H114       26.2735   30.2825   -1.0377 H         1 UNK         0.0806 
    115 H115       27.3546   30.5141    2.4839 H         1 UNK         0.3010 
    116 H116       26.6476   31.9093    3.9972 H         1 UNK         0.0829 
    117 H117       24.8799   32.5952    2.3520 H         1 UNK         0.0813 
    118 H118       25.3064   33.8970    3.4484 H         1 UNK         0.0813 
    119 H119       25.9129   33.9143    1.8004 H         1 UNK         0.0813 
    120 H120       29.4835   32.0538    2.8770 H         1 UNK         0.3038 
    121 H121       30.2928   34.6382    4.1596 H         1 UNK         0.0769 
    122 H122       31.5761   33.1673    1.8125 H         1 UNK         0.0811 
    123 H123       32.2717   34.5534    2.6401 H         1 UNK         0.0811 
    124 H124       30.7580   34.7210    1.7632 H         1 UNK         0.0811 
    125 H125       31.5806   31.2712    3.4509 H         1 UNK         0.3204 
    126 H126       32.4872   30.9550    6.1694 H         1 UNK         0.0748 
    127 H127       34.2182   32.6273    5.4970 H         1 UNK         0.0771 
    128 H128       34.9731   31.0538    5.6279 H         1 UNK         0.0771 
    129 H129       34.5852   31.7033    4.0422 H         1 UNK         0.0771 
    130 H130       33.5243   28.9970    6.5714 H         1 UNK         0.2980 
    131 H131       33.3402   26.8461    4.5792 H         1 UNK         0.0545 
    132 H132       35.3216   25.5625    3.9838 H         1 UNK         0.3459 
    133 H133       36.8407   26.4077    3.9103 H         1 UNK         0.3459 
    134 H134       34.3653   25.4787    6.5267 H         1 UNK         0.0616 
    135 H135       34.1957   26.8935    7.5164 H         1 UNK         0.0616 
    136 H136       32.9425   23.7056    7.1975 H         1 UNK         0.0634 
    137 H137       31.2078   23.7272    7.3285 H         1 UNK         0.0634 
@<TRIPOS>BOND
     1    1    2 1    
     2    1   72 1    
     3    1   73 1    
     4    1   74 1    
     5    2    3 2    
     6    2    4 am   BACKBONE|DICT|INTERRES
     7    4    5 1    
     8    4   75 1    
     9    5    6 1    
    10    5   35 1    
    11    5   76 1    
    12    6    7 1    
    13    6   77 1    
    14    6   78 1    
    15    7    8 1    
    16    8    9 1    
    17    8   79 1    
    18    8   80 1    
    19    9   10 ar   
    20    9   14 ar   
    21   10   11 ar   
    22   10   81 1    
    23   11   12 ar   
    24   11   71 1    
    25   12   13 ar   
    26   12   82 1    
    27   13   14 ar   
    28   13   15 1    
    29   14   83 1    
    30   15   16 1    
    31   15   84 1    
    32   15   85 1    
    33   16   17 1    
    34   17   18 1    
    35   17   86 1    
    36   17   87 1    
    37   18   19 1    
    38   18   37 1    
    39   18   88 1    
    40   19   20 am   BACKBONE|DICT|INTERRES
    41   19   89 1    
    42   20   21 2    
    43   20   22 1    
    44   22   23 1    
    45   22   24 1    
    46   22   90 1    
    47   23   91 1    
    48   23   92 1    
    49   23   93 1    
    50   24   25 am   BACKBONE|DICT|INTERRES
    51   24   94 1    
    52   25   26 2    
    53   25   27 1    
    54   27   28 1    
    55   27   29 1    
    56   27   95 1    
    57   28   96 1    
    58   28   97 1    
    59   28   98 1    
    60   29   30 am   BACKBONE|DICT|INTERRES
    61   29   99 1    
    62   30   31 2    
    63   30   32 1    
    64   32   33 1    
    65   32   34 1    
    66   32  100 1    
    67   33  101 1    
    68   33  102 1    
    69   33  103 1    
    70   34   35 am   BACKBONE|DICT|INTERRES
    71   34  104 1    
    72   35   36 2    
    73   37   38 2    
    74   37   39 am   BACKBONE|DICT|INTERRES
    75   39   40 1    
    76   39  105 1    
    77   40   41 1    
    78   40   42 1    
    79   40  106 1    
    80   41  107 1    
    81   41  108 1    
    82   41  109 1    
    83   42   43 2    
    84   42   44 am   BACKBONE|DICT|INTERRES
    85   44   45 1    
    86   44  110 1    
    87   45   46 1    
    88   45   47 1    
    89   45  111 1    
    90   46  112 1    
    91   46  113 1    
    92   46  114 1    
    93   47   48 2    
    94   47   49 am   BACKBONE|DICT|INTERRES
    95   49   50 1    
    96   49  115 1    
    97   50   51 1    
    98   50   52 1    
    99   50  116 1    
   100   51  117 1    
   101   51  118 1    
   102   51  119 1    
   103   52   53 2    
   104   52   54 am   BACKBONE|DICT|INTERRES
   105   54   55 1    
   106   54  120 1    
   107   55   56 1    
   108   55   57 1    
   109   55  121 1    
   110   56  122 1    
   111   56  123 1    
   112   56  124 1    
   113   57   58 2    
   114   57   59 am   BACKBONE|DICT|INTERRES
   115   59   60 1    
   116   59  125 1    
   117   60   61 1    
   118   60   62 1    
   119   60  126 1    
   120   61  127 1    
   121   61  128 1    
   122   61  129 1    
   123   62   63 2    
   124   62   64 am   BACKBONE|DICT|INTERRES
   125   64   65 1    
   126   64  130 1    
   127   65   66 1    
   128   65   69 1    
   129   65  131 1    
   130   66   67 am   BACKBONE|DICT|INTERRES
   131   66   68 2    
   132   67  132 1    
   133   67  133 1    
   134   69   70 1    
   135   69  134 1    
   136   69  135 1    
   137   70   71 1    
   138   71  136 1    
   139   71  137 1    
@<TRIPOS>SUBSTRUCTURE
     1 UNK         1 GROUP             0       ****    0 ROOT    
