@<TRIPOS>MOLECULE
3R136
137   139    1
SMALL
USER_CHARGES


@<TRIPOS>ATOM
      1 CA         26.8795   21.4023   -2.8814 C.3       0 UNK        -0.1979 
      2 C          27.6574   22.4359   -2.0818 C.2       0 UNK         0.4864 
      3 O          27.3040   23.6158   -2.1005 O.2       0 UNK        -0.5359 
      4 N          28.7027   22.0022   -1.3617 N.am      1 UNK        -0.4318 
      5 CA         29.5905   22.8470   -0.5479 C.3       1 UNK         0.0824 
      6 C6         30.7855   22.0414    0.0203 C.3       12 UNK        -0.0944 
      7 S7         30.2932   20.7214    1.1908 S.3       12 UNK        -0.2672 
      8 C8         31.7331   20.6129    2.3030 C.3       12 UNK         0.0333 
      9 C9         32.0428   21.9275    3.0084 C.ar      12 UNK        -0.0807 
     10 C10        33.2035   22.6341    2.6814 C.ar      12 UNK        -0.0894 
     11 C11        33.5048   23.8383    3.3205 C.ar      12 UNK        -0.0804 
     12 C12        32.6452   24.3287    4.3069 C.ar      12 UNK        -0.0824 
     13 C13        31.4778   23.6349    4.6453 C.ar      12 UNK        -0.0762 
     14 C14        31.1839   22.4320    3.9913 C.ar      12 UNK        -0.0782 
     15 C15        30.5460   24.1581    5.7366 C.3       12 UNK         0.0230 
     16 S16        30.2182   25.9521    5.6327 S.3       12 UNK        -0.2608 
     17 C17        29.2568   26.0500    4.0890 C.3       12 UNK        -0.0989 
     18 CA         29.2795   27.4665    3.4590 C.3       5 UNK         0.0716 
     19 N          29.1724   27.3984    1.9985 N.am      5 UNK        -0.4135 
     20 C          29.2960   28.4339    1.1562 C.2       4 UNK         0.5031 
     21 O          29.5507   29.5849    1.5058 O.2       4 UNK        -0.5229 
     22 CA         29.0308   28.1420   -0.3295 C.3       4 UNK         0.0329 
     23 CB         30.2773   27.5470   -1.0042 C.3       4 UNK        -0.2001 
     24 N          27.8818   27.2516   -0.5189 N.am      4 UNK        -0.4303 
     25 C          26.6173   27.5783   -0.2125 C.2       3 UNK         0.5044 
     26 O          26.2785   28.6823    0.2107 O.2       3 UNK        -0.5152 
     27 CA         25.5658   26.4652   -0.3322 C.3       3 UNK         0.0319 
     28 CB         25.1589   26.2448   -1.7973 C.3       3 UNK        -0.2001 
     29 N          26.0354   25.2094    0.2582 N.am      3 UNK        -0.4354 
     30 C          26.2426   25.0379    1.5744 C.2       2 UNK         0.4964 
     31 O          26.0076   25.9020    2.4176 O.2       2 UNK        -0.5047 
     32 CA         26.8491   23.7018    2.0382 C.3       2 UNK         0.0288 
     33 CB         25.7383   22.7062    2.4065 C.3       2 UNK        -0.2113 
     34 N          27.7446   23.0855    1.0600 N.am      2 UNK        -0.4145 
     35 C          28.8558   23.6425    0.5547 C.2       1 UNK         0.5006 
     36 O          29.2736   24.7529    0.8861 O.2       1 UNK        -0.5103 
     37 C          28.2227   28.3926    4.1063 C.2       5 UNK         0.5055 
     38 O          28.5078   29.0072    5.1343 O.2       5 UNK        -0.5220 
     39 N          27.0263   28.4732    3.5071 N.am      6 UNK        -0.4450 
     40 CA         25.9596   29.3857    3.9148 C.3       6 UNK         0.0367 
     41 CB         24.6017   28.8166    3.4716 C.3       6 UNK        -0.1929 
     42 C          26.1621   30.8033    3.3543 C.2       6 UNK         0.5070 
     43 O          25.9588   31.7729    4.0856 O.2       6 UNK        -0.5237 
     44 N          26.5173   30.9052    2.0653 N.am      7 UNK        -0.4739 
     45 CA         26.6386   32.1711    1.3362 C.3       7 UNK         0.0276 
     46 CB         26.6784   31.8890   -0.1743 C.3       7 UNK        -0.1927 
     47 C          27.8486   33.0248    1.7489 C.2       7 UNK         0.5013 
     48 O          27.7257   34.2501    1.7941 O.2       7 UNK        -0.5193 
     49 N          28.9878   32.3787    2.0171 N.am      8 UNK        -0.4253 
     50 CA         30.2473   33.0124    2.4049 C.3       8 UNK         0.0242 
     51 CB         31.3101   32.6630    1.3479 C.3       8 UNK        -0.2000 
     52 C          30.6778   32.5157    3.7906 C.2       8 UNK         0.4948 
     53 O          30.1155   31.5493    4.3093 O.2       8 UNK        -0.5275 
     54 N          31.6970   33.1652    4.3679 N.am      9 UNK        -0.4246 
     55 CA         32.3303   32.7796    5.6337 C.3       9 UNK         0.0261 
     56 CB         33.1021   33.9888    6.1954 C.3       9 UNK        -0.1959 
     57 C          33.2240   31.5351    5.4520 C.2       9 UNK         0.5033 
     58 O          34.4495   31.6387    5.5407 O.2       9 UNK        -0.5390 
     59 N          32.5790   30.3963    5.1625 N.am      10 UNK        -0.4215 
     60 CA         33.1564   29.1163    4.7373 C.3       10 UNK         0.0240 
     61 CB         34.0785   28.5213    5.8263 C.3       10 UNK        -0.1982 
     62 C          33.8225   29.2204    3.3485 C.2       10 UNK         0.4970 
     63 O          33.5437   30.1569    2.5960 O.2       10 UNK        -0.4916 
     64 N          34.6525   28.2292    3.0096 N.am      11 UNK        -0.4279 
     65 CA         35.3826   28.1512    1.7367 C.3       11 UNK         0.1003 
     66 C          36.5539   29.1675    1.6736 C.2       11 UNK         0.5709 
     67 N          36.8198   29.7381    0.5064 N.am      11 UNK        -0.7358 
     68 O          37.2491   29.4078    2.6593 O.2       11 UNK        -0.4999 
     69 C69        35.8831   26.7115    1.4548 C.3       12 UNK        -0.0954 
     70 S70        34.5081   25.5158    1.3837 S.3       12 UNK        -0.2268 
     71 C71        34.7565   24.6105    2.9409 C.3       12 UNK         0.0203 
     72 H72        25.8396   21.3825   -2.5567 H         1 UNK         0.0888 
     73 H73        26.9011   21.6561   -3.9408 H         1 UNK         0.0888 
     74 H74        27.2918   20.4004   -2.7636 H         1 UNK         0.0888 
     75 H75        28.9341   21.0185   -1.3684 H         1 UNK         0.3017 
     76 H76        30.0021   23.5958   -1.2282 H         1 UNK         0.0873 
     77 H77        31.4853   22.7274    0.4982 H         1 UNK         0.0745 
     78 H78        31.3439   21.5804   -0.7958 H         1 UNK         0.0745 
     79 H79        32.5945   20.2688    1.7283 H         1 UNK         0.0705 
     80 H80        31.5410   19.8430    3.0515 H         1 UNK         0.0705 
     81 H81        33.8704   22.2554    1.9186 H         1 UNK         0.1334 
     82 H82        32.8815   25.2562    4.8097 H         1 UNK         0.1417 
     83 H83        30.2876   21.8822    4.2452 H         1 UNK         0.1562 
     84 H84        30.9967   23.9433    6.7063 H         1 UNK         0.0748 
     85 H85        29.5915   23.6296    5.7167 H         1 UNK         0.0748 
     86 H86        28.2374   25.7070    4.2748 H         1 UNK         0.0940 
     87 H87        29.6932   25.3296    3.3964 H         1 UNK         0.0940 
     88 H88        30.2533   27.9182    3.6537 H         1 UNK         0.0703 
     89 H89        29.0305   26.4740    1.5979 H         1 UNK         0.3081 
     90 H90        28.8021   29.0913   -0.8184 H         1 UNK         0.0719 
     91 H91        30.1162   27.3947   -2.0714 H         1 UNK         0.0809 
     92 H92        31.1316   28.2173   -0.8984 H         1 UNK         0.0809 
     93 H93        30.5620   26.5894   -0.5675 H         1 UNK         0.0809 
     94 H94        28.0763   26.3077   -0.8224 H         1 UNK         0.2990 
     95 H95        24.6783   26.7846    0.2188 H         1 UNK         0.0690 
     96 H96        24.7531   27.1609   -2.2288 H         1 UNK         0.0788 
     97 H97        24.3900   25.4770   -1.8845 H         1 UNK         0.0788 
     98 H98        26.0052   25.9425   -2.4149 H         1 UNK         0.0788 
     99 H99        26.2988   24.4726   -0.3869 H         1 UNK         0.2993 
    100 H100       27.4379   23.9020    2.9345 H         1 UNK         0.0949 
    101 H101       25.1319   22.4386    1.5401 H         1 UNK         0.0767 
    102 H102       26.1509   21.7882    2.8258 H         1 UNK         0.0767 
    103 H103       25.0680   23.1298    3.1560 H         1 UNK         0.0767 
    104 H104       27.4908   22.1671    0.7266 H         1 UNK         0.3013 
    105 H105       26.8326   27.8680    2.7179 H         1 UNK         0.3121 
    106 H106       25.9515   29.4551    5.0048 H         1 UNK         0.0774 
    107 H107       24.5436   28.7003    2.3887 H         1 UNK         0.0815 
    108 H108       23.7854   29.4736    3.7746 H         1 UNK         0.0815 
    109 H109       24.4172   27.8405    3.9206 H         1 UNK         0.0815 
    110 H110       26.6150   30.0561    1.5143 H         1 UNK         0.2987 
    111 H111       25.7421   32.7600    1.5433 H         1 UNK         0.0949 
    112 H112       27.5344   31.2695   -0.4445 H         1 UNK         0.0806 
    113 H113       25.7760   31.3747   -0.5055 H         1 UNK         0.0806 
    114 H114       26.7511   32.8157   -0.7451 H         1 UNK         0.0806 
    115 H115       29.0034   31.3607    1.9959 H         1 UNK         0.3010 
    116 H116       30.1379   34.0976    2.4557 H         1 UNK         0.0829 
    117 H117       31.0090   33.0030    0.3570 H         1 UNK         0.0813 
    118 H118       32.2683   33.1321    1.5733 H         1 UNK         0.0813 
    119 H119       31.4813   31.5867    1.2929 H         1 UNK         0.0813 
    120 H120       32.1300   33.9281    3.8671 H         1 UNK         0.3038 
    121 H121       31.5503   32.5216    6.3537 H         1 UNK         0.0769 
    122 H122       33.8893   34.3190    5.5164 H         1 UNK         0.0811 
    123 H123       33.5751   33.7408    7.1466 H         1 UNK         0.0811 
    124 H124       32.4381   34.8343    6.3766 H         1 UNK         0.0811 
    125 H125       31.5754   30.4897    5.0166 H         1 UNK         0.3204 
    126 H126       32.3118   28.4375    4.6192 H         1 UNK         0.0748 
    127 H127       34.3038   27.4728    5.6302 H         1 UNK         0.0771 
    128 H128       35.0274   29.0550    5.8929 H         1 UNK         0.0771 
    129 H129       33.6050   28.5620    6.8074 H         1 UNK         0.0771 
    130 H130       34.8597   27.5107    3.6841 H         1 UNK         0.2980 
    131 H131       34.6779   28.4129    0.9442 H         1 UNK         0.0545 
    132 H132       37.5875   30.3882    0.4431 H         1 UNK         0.3459 
    133 H133       36.2646   29.5381   -0.3110 H         1 UNK         0.3459 
    134 H134       36.3984   26.6717    0.4934 H         1 UNK         0.0616 
    135 H135       36.6135   26.3978    2.2030 H         1 UNK         0.0616 
    136 H136       35.0229   25.3073    3.7366 H         1 UNK         0.0634 
    137 H137       35.6001   23.9273    2.8315 H         1 UNK         0.0634 
@<TRIPOS>BOND
     1    1    2 1    
     2    1   72 1    
     3    1   73 1    
     4    1   74 1    
     5    2    3 2    
     6    2    4 am   BACKBONE|DICT|INTERRES
     7    4    5 1    
     8    4   75 1    
     9    5    6 1    
    10    5   35 1    
    11    5   76 1    
    12    6    7 1    
    13    6   77 1    
    14    6   78 1    
    15    7    8 1    
    16    8    9 1    
    17    8   79 1    
    18    8   80 1    
    19    9   10 ar   
    20    9   14 ar   
    21   10   11 ar   
    22   10   81 1    
    23   11   12 ar   
    24   11   71 1    
    25   12   13 ar   
    26   12   82 1    
    27   13   14 ar   
    28   13   15 1    
    29   14   83 1    
    30   15   16 1    
    31   15   84 1    
    32   15   85 1    
    33   16   17 1    
    34   17   18 1    
    35   17   86 1    
    36   17   87 1    
    37   18   19 1    
    38   18   37 1    
    39   18   88 1    
    40   19   20 am   BACKBONE|DICT|INTERRES
    41   19   89 1    
    42   20   21 2    
    43   20   22 1    
    44   22   23 1    
    45   22   24 1    
    46   22   90 1    
    47   23   91 1    
    48   23   92 1    
    49   23   93 1    
    50   24   25 am   BACKBONE|DICT|INTERRES
    51   24   94 1    
    52   25   26 2    
    53   25   27 1    
    54   27   28 1    
    55   27   29 1    
    56   27   95 1    
    57   28   96 1    
    58   28   97 1    
    59   28   98 1    
    60   29   30 am   BACKBONE|DICT|INTERRES
    61   29   99 1    
    62   30   31 2    
    63   30   32 1    
    64   32   33 1    
    65   32   34 1    
    66   32  100 1    
    67   33  101 1    
    68   33  102 1    
    69   33  103 1    
    70   34   35 am   BACKBONE|DICT|INTERRES
    71   34  104 1    
    72   35   36 2    
    73   37   38 2    
    74   37   39 am   BACKBONE|DICT|INTERRES
    75   39   40 1    
    76   39  105 1    
    77   40   41 1    
    78   40   42 1    
    79   40  106 1    
    80   41  107 1    
    81   41  108 1    
    82   41  109 1    
    83   42   43 2    
    84   42   44 am   BACKBONE|DICT|INTERRES
    85   44   45 1    
    86   44  110 1    
    87   45   46 1    
    88   45   47 1    
    89   45  111 1    
    90   46  112 1    
    91   46  113 1    
    92   46  114 1    
    93   47   48 2    
    94   47   49 am   BACKBONE|DICT|INTERRES
    95   49   50 1    
    96   49  115 1    
    97   50   51 1    
    98   50   52 1    
    99   50  116 1    
   100   51  117 1    
   101   51  118 1    
   102   51  119 1    
   103   52   53 2    
   104   52   54 am   BACKBONE|DICT|INTERRES
   105   54   55 1    
   106   54  120 1    
   107   55   56 1    
   108   55   57 1    
   109   55  121 1    
   110   56  122 1    
   111   56  123 1    
   112   56  124 1    
   113   57   58 2    
   114   57   59 am   BACKBONE|DICT|INTERRES
   115   59   60 1    
   116   59  125 1    
   117   60   61 1    
   118   60   62 1    
   119   60  126 1    
   120   61  127 1    
   121   61  128 1    
   122   61  129 1    
   123   62   63 2    
   124   62   64 am   BACKBONE|DICT|INTERRES
   125   64   65 1    
   126   64  130 1    
   127   65   66 1    
   128   65   69 1    
   129   65  131 1    
   130   66   67 am   BACKBONE|DICT|INTERRES
   131   66   68 2    
   132   67  132 1    
   133   67  133 1    
   134   69   70 1    
   135   69  134 1    
   136   69  135 1    
   137   70   71 1    
   138   71  136 1    
   139   71  137 1    
@<TRIPOS>SUBSTRUCTURE
     1 UNK         1 GROUP             0       ****    0 ROOT    
