@<TRIPOS>MOLECULE
3R136
137   139    1
SMALL
USER_CHARGES


@<TRIPOS>ATOM
      1 CA         29.3447   22.3986   -3.3629 C.3       0 UNK        -0.1979 
      2 C          29.2580   22.0140   -1.8935 C.2       0 UNK         0.4864 
      3 O          28.6601   20.9889   -1.5653 O.2       0 UNK        -0.5359 
      4 N          29.8385   22.8422   -1.0130 N.am      1 UNK        -0.4318 
      5 CA         29.9276   22.6592    0.4477 C.3       1 UNK         0.0824 
      6 C6         30.7375   21.4028    0.8826 C.3       12 UNK        -0.0944 
      7 S7         32.3405   21.2381    0.0167 S.3       12 UNK        -0.2672 
      8 C8         33.5125   21.9922    1.1937 C.3       12 UNK         0.0333 
      9 C9         33.2425   23.4703    1.4580 C.ar      12 UNK        -0.0807 
     10 C10        33.2155   23.9458    2.7722 C.ar      12 UNK        -0.0894 
     11 C11        32.9820   25.2983    3.0354 C.ar      12 UNK        -0.0804 
     12 C12        32.7347   26.1749    1.9753 C.ar      12 UNK        -0.0824 
     13 C13        32.7628   25.7146    0.6551 C.ar      12 UNK        -0.0762 
     14 C14        33.0449   24.3682    0.4023 C.ar      12 UNK        -0.0782 
     15 C15        32.5133   26.6778   -0.4973 C.3       12 UNK         0.0230 
     16 S16        31.0705   26.2118   -1.5118 S.3       12 UNK        -0.2608 
     17 C17        29.6905   26.3288   -0.3274 C.3       12 UNK        -0.0989 
     18 CA         29.1615   27.7772   -0.1445 C.3       5 UNK         0.0716 
     19 N          27.7013   27.8461   -0.2190 N.am      5 UNK        -0.4135 
     20 C          26.9952   28.9618   -0.4489 C.2       4 UNK         0.5031 
     21 O          27.5031   30.0517   -0.7111 O.2       4 UNK        -0.5229 
     22 CA         25.4622   28.8491   -0.3429 C.3       4 UNK         0.0329 
     23 CB         24.8524   28.5129   -1.7129 C.3       4 UNK        -0.2001 
     24 N          25.0233   27.8551    0.6425 N.am      4 UNK        -0.4303 
     25 C          25.2092   27.9693    1.9658 C.2       3 UNK         0.5044 
     26 O          25.7081   28.9590    2.4981 O.2       3 UNK        -0.5152 
     27 CA         24.8321   26.7550    2.8370 C.3       3 UNK         0.0319 
     28 CB         23.3656   26.8522    3.2852 C.3       3 UNK        -0.2001 
     29 N          25.0638   25.4533    2.1956 N.am      3 UNK        -0.4354 
     30 C          26.2353   25.0325    1.6967 C.2       2 UNK         0.4964 
     31 O          27.2635   25.7149    1.7152 O.2       2 UNK        -0.5047 
     32 CA         26.2317   23.6551    1.0092 C.3       2 UNK         0.0288 
     33 CB         25.2342   23.6257   -0.1644 C.3       2 UNK        -0.2113 
     34 N          27.5559   23.3245    0.4837 N.am      2 UNK        -0.4145 
     35 C          28.5648   22.7762    1.1748 C.2       1 UNK         0.5006 
     36 O          28.4571   22.3957    2.3424 O.2       1 UNK        -0.5103 
     37 C          29.6464   28.3912    1.1805 C.2       5 UNK         0.5055 
     38 O          30.5602   29.2138    1.1648 O.2       5 UNK        -0.5220 
     39 N          28.9872   28.0222    2.2902 N.am      6 UNK        -0.4450 
     40 CA         29.2414   28.5492    3.6357 C.3       6 UNK         0.0367 
     41 CB         28.3634   27.8057    4.6538 C.3       6 UNK        -0.1929 
     42 C          29.0308   30.0710    3.7511 C.2       6 UNK         0.5070 
     43 O          29.7256   30.7240    4.5276 O.2       6 UNK        -0.5237 
     44 N          28.0880   30.6158    2.9710 N.am      7 UNK        -0.4739 
     45 CA         27.8568   32.0543    2.8327 C.3       7 UNK         0.0276 
     46 CB         26.4873   32.2838    2.1737 C.3       7 UNK        -0.1927 
     47 C          28.9634   32.7727    2.0375 C.2       7 UNK         0.5013 
     48 O          29.2010   33.9558    2.2843 O.2       7 UNK        -0.5193 
     49 N          29.6063   32.0658    1.0972 N.am      8 UNK        -0.4253 
     50 CA         30.6885   32.5889    0.2617 C.3       8 UNK         0.0242 
     51 CB         30.7296   31.8265   -1.0737 C.3       8 UNK        -0.2000 
     52 C          32.0479   32.5227    0.9749 C.2       8 UNK         0.4948 
     53 O          32.7987   33.4982    0.9268 O.2       8 UNK        -0.5275 
     54 N          32.3381   31.3888    1.6233 N.am      9 UNK        -0.4246 
     55 CA         33.5493   31.1445    2.4004 C.3       9 UNK         0.0261 
     56 CB         34.5119   30.2613    1.5862 C.3       9 UNK        -0.1959 
     57 C          33.1286   30.4626    3.7040 C.2       9 UNK         0.5033 
     58 O          32.6373   29.3360    3.6535 O.2       9 UNK        -0.5390 
     59 N          33.3000   31.1623    4.8336 N.am      10 UNK        -0.4215 
     60 CA         32.8551   30.7429    6.1657 C.3       10 UNK         0.0240 
     61 CB         33.1755   31.8522    7.1823 C.3       10 UNK        -0.1982 
     62 C          33.4586   29.4000    6.6113 C.2       10 UNK         0.4970 
     63 O          34.6773   29.3060    6.7752 O.2       10 UNK        -0.4916 
     64 N          32.5915   28.4007    6.8053 N.am      11 UNK        -0.4279 
     65 CA         32.9427   27.0795    7.3394 C.3       11 UNK         0.1003 
     66 C          33.2554   27.1276    8.8604 C.2       11 UNK         0.5709 
     67 N          34.1027   26.2312    9.3475 N.am      11 UNK        -0.7358 
     68 O          32.7127   27.9411    9.6069 O.2       11 UNK        -0.4999 
     69 C69        31.8362   26.0309    7.0352 C.3       12 UNK        -0.0954 
     70 S70        31.4178   25.7904    5.2696 S.3       12 UNK        -0.2268 
     71 C71        33.0460   25.8152    4.4631 C.3       12 UNK         0.0203 
     72 H72        29.8727   23.3412   -3.5081 H         1 UNK         0.0888 
     73 H73        29.8724   21.6256   -3.9210 H         1 UNK         0.0888 
     74 H74        28.3451   22.5016   -3.7844 H         1 UNK         0.0888 
     75 H75        30.3180   23.6607   -1.3639 H         1 UNK         0.3017 
     76 H76        30.4816   23.5248    0.8070 H         1 UNK         0.0873 
     77 H77        30.9206   21.4181    1.9586 H         1 UNK         0.0745 
     78 H78        30.1606   20.4970    0.6888 H         1 UNK         0.0745 
     79 H79        33.4887   21.4195    2.1223 H         1 UNK         0.0705 
     80 H80        34.5224   21.8894    0.7948 H         1 UNK         0.0705 
     81 H81        33.3940   23.2665    3.5947 H         1 UNK         0.1334 
     82 H82        32.5377   27.2189    2.1806 H         1 UNK         0.1417 
     83 H83        33.0818   24.0128   -0.6186 H         1 UNK         0.1562 
     84 H84        33.3972   26.6965   -1.1361 H         1 UNK         0.0748 
     85 H85        32.3819   27.6982   -0.1350 H         1 UNK         0.0748 
     86 H86        29.9668   25.8598    0.6192 H         1 UNK         0.0940 
     87 H87        28.9017   25.6948   -0.7329 H         1 UNK         0.0940 
     88 H88        29.5498   28.4018   -0.9525 H         1 UNK         0.0703 
     89 H89        27.2064   27.0160    0.0788 H         1 UNK         0.3081 
     90 H90        25.0826   29.8242   -0.0296 H         1 UNK         0.0719 
     91 H91        25.1780   27.5364   -2.0739 H         1 UNK         0.0809 
     92 H92        23.7629   28.5109   -1.6728 H         1 UNK         0.0809 
     93 H93        25.1454   29.2511   -2.4610 H         1 UNK         0.0809 
     94 H94        24.5885   27.0153    0.2890 H         1 UNK         0.2990 
     95 H95        25.4599   26.7878    3.7289 H         1 UNK         0.0690 
     96 H96        23.1124   26.0610    3.9912 H         1 UNK         0.0788 
     97 H97        22.6784   26.7832    2.4409 H         1 UNK         0.0788 
     98 H98        23.1730   27.8026    3.7855 H         1 UNK         0.0788 
     99 H99        24.2655   24.8372    2.1355 H         1 UNK         0.2993 
    100 H100       25.9393   22.9056    1.7479 H         1 UNK         0.0949 
    101 H101       25.2651   22.6664   -0.6823 H         1 UNK         0.0767 
    102 H102       24.2076   23.7658    0.1757 H         1 UNK         0.0767 
    103 H103       25.4463   24.4053   -0.8977 H         1 UNK         0.0767 
    104 H104       27.7418   23.6013   -0.4676 H         1 UNK         0.3013 
    105 H105       28.2714   27.3059    2.2063 H         1 UNK         0.3121 
    106 H106       30.2851   28.3379    3.8709 H         1 UNK         0.0774 
    107 H107       27.3080   28.0434    4.5251 H         1 UNK         0.0815 
    108 H108       28.6363   28.0833    5.6726 H         1 UNK         0.0815 
    109 H109       28.4802   26.7250    4.5697 H         1 UNK         0.0815 
    110 H110       27.4699   29.9970    2.4567 H         1 UNK         0.2987 
    111 H111       27.8328   32.4935    3.8326 H         1 UNK         0.0949 
    112 H112       26.4464   31.8581    1.1704 H         1 UNK         0.0806 
    113 H113       25.6849   31.8354    2.7599 H         1 UNK         0.0806 
    114 H114       26.2692   33.3490    2.0861 H         1 UNK         0.0806 
    115 H115       29.3805   31.0854    0.9869 H         1 UNK         0.3010 
    116 H116       30.4808   33.6375    0.0366 H         1 UNK         0.0829 
    117 H117       29.7750   31.8925   -1.5963 H         1 UNK         0.0813 
    118 H118       31.4918   32.2417   -1.7342 H         1 UNK         0.0813 
    119 H119       30.9605   30.7700   -0.9364 H         1 UNK         0.0813 
    120 H120       31.6658   30.6209    1.6111 H         1 UNK         0.3038 
    121 H121       34.0515   32.0851    2.6364 H         1 UNK         0.0769 
    122 H122       34.0510   29.3124    1.3080 H         1 UNK         0.0811 
    123 H123       35.4110   30.0330    2.1597 H         1 UNK         0.0811 
    124 H124       34.8264   30.7607    0.6699 H         1 UNK         0.0811 
    125 H125       33.7319   32.0728    4.7751 H         1 UNK         0.3204 
    126 H126       31.7701   30.6367    6.1260 H         1 UNK         0.0748 
    127 H127       32.8485   31.5687    8.1838 H         1 UNK         0.0771 
    128 H128       34.2460   32.0558    7.2350 H         1 UNK         0.0771 
    129 H129       32.6673   32.7829    6.9289 H         1 UNK         0.0771 
    130 H130       31.6105   28.5615    6.6358 H         1 UNK         0.2980 
    131 H131       33.8644   26.7643    6.8490 H         1 UNK         0.0545 
    132 H132       34.3071   26.2379   10.3346 H         1 UNK         0.3459 
    133 H133       34.5455   25.5505    8.7500 H         1 UNK         0.3459 
    134 H134       32.1304   25.0553    7.4263 H         1 UNK         0.0616 
    135 H135       30.9143   26.2956    7.5564 H         1 UNK         0.0616 
    136 H136       33.4388   26.8329    4.4682 H         1 UNK         0.0634 
    137 H137       33.7444   25.2074    5.0403 H         1 UNK         0.0634 
@<TRIPOS>BOND
     1    1    2 1    
     2    1   72 1    
     3    1   73 1    
     4    1   74 1    
     5    2    3 2    
     6    2    4 am   BACKBONE|DICT|INTERRES
     7    4    5 1    
     8    4   75 1    
     9    5    6 1    
    10    5   35 1    
    11    5   76 1    
    12    6    7 1    
    13    6   77 1    
    14    6   78 1    
    15    7    8 1    
    16    8    9 1    
    17    8   79 1    
    18    8   80 1    
    19    9   10 ar   
    20    9   14 ar   
    21   10   11 ar   
    22   10   81 1    
    23   11   12 ar   
    24   11   71 1    
    25   12   13 ar   
    26   12   82 1    
    27   13   14 ar   
    28   13   15 1    
    29   14   83 1    
    30   15   16 1    
    31   15   84 1    
    32   15   85 1    
    33   16   17 1    
    34   17   18 1    
    35   17   86 1    
    36   17   87 1    
    37   18   19 1    
    38   18   37 1    
    39   18   88 1    
    40   19   20 am   BACKBONE|DICT|INTERRES
    41   19   89 1    
    42   20   21 2    
    43   20   22 1    
    44   22   23 1    
    45   22   24 1    
    46   22   90 1    
    47   23   91 1    
    48   23   92 1    
    49   23   93 1    
    50   24   25 am   BACKBONE|DICT|INTERRES
    51   24   94 1    
    52   25   26 2    
    53   25   27 1    
    54   27   28 1    
    55   27   29 1    
    56   27   95 1    
    57   28   96 1    
    58   28   97 1    
    59   28   98 1    
    60   29   30 am   BACKBONE|DICT|INTERRES
    61   29   99 1    
    62   30   31 2    
    63   30   32 1    
    64   32   33 1    
    65   32   34 1    
    66   32  100 1    
    67   33  101 1    
    68   33  102 1    
    69   33  103 1    
    70   34   35 am   BACKBONE|DICT|INTERRES
    71   34  104 1    
    72   35   36 2    
    73   37   38 2    
    74   37   39 am   BACKBONE|DICT|INTERRES
    75   39   40 1    
    76   39  105 1    
    77   40   41 1    
    78   40   42 1    
    79   40  106 1    
    80   41  107 1    
    81   41  108 1    
    82   41  109 1    
    83   42   43 2    
    84   42   44 am   BACKBONE|DICT|INTERRES
    85   44   45 1    
    86   44  110 1    
    87   45   46 1    
    88   45   47 1    
    89   45  111 1    
    90   46  112 1    
    91   46  113 1    
    92   46  114 1    
    93   47   48 2    
    94   47   49 am   BACKBONE|DICT|INTERRES
    95   49   50 1    
    96   49  115 1    
    97   50   51 1    
    98   50   52 1    
    99   50  116 1    
   100   51  117 1    
   101   51  118 1    
   102   51  119 1    
   103   52   53 2    
   104   52   54 am   BACKBONE|DICT|INTERRES
   105   54   55 1    
   106   54  120 1    
   107   55   56 1    
   108   55   57 1    
   109   55  121 1    
   110   56  122 1    
   111   56  123 1    
   112   56  124 1    
   113   57   58 2    
   114   57   59 am   BACKBONE|DICT|INTERRES
   115   59   60 1    
   116   59  125 1    
   117   60   61 1    
   118   60   62 1    
   119   60  126 1    
   120   61  127 1    
   121   61  128 1    
   122   61  129 1    
   123   62   63 2    
   124   62   64 am   BACKBONE|DICT|INTERRES
   125   64   65 1    
   126   64  130 1    
   127   65   66 1    
   128   65   69 1    
   129   65  131 1    
   130   66   67 am   BACKBONE|DICT|INTERRES
   131   66   68 2    
   132   67  132 1    
   133   67  133 1    
   134   69   70 1    
   135   69  134 1    
   136   69  135 1    
   137   70   71 1    
   138   71  136 1    
   139   71  137 1    
@<TRIPOS>SUBSTRUCTURE
     1 UNK         1 GROUP             0       ****    0 ROOT    
