@<TRIPOS>MOLECULE
3R136
137   139    1
SMALL
USER_CHARGES


@<TRIPOS>ATOM
      1 CA         32.6726   25.8066   -2.6431 C.3       0 UNK        -0.1979 
      2 C          31.3474   25.6389   -1.9170 C.2       0 UNK         0.4864 
      3 O          30.4717   26.4965   -2.0346 O.2       0 UNK        -0.5359 
      4 N          31.1816   24.5295   -1.1805 N.am      1 UNK        -0.4318 
      5 CA         30.0189   24.2304   -0.3270 C.3       1 UNK         0.0824 
      6 C6         30.2310   22.9591    0.5352 C.3       12 UNK        -0.0944 
      7 S7         31.8186   22.8329    1.4390 S.3       12 UNK        -0.2672 
      8 C8         32.1686   24.5178    2.0625 C.3       12 UNK         0.0333 
      9 C9         31.4342   24.9499    3.3338 C.ar      12 UNK        -0.0807 
     10 C10        31.8330   26.1470    3.9351 C.ar      12 UNK        -0.0894 
     11 C11        31.2524   26.5848    5.1282 C.ar      12 UNK        -0.0804 
     12 C12        30.2364   25.8274    5.7149 C.ar      12 UNK        -0.0824 
     13 C13        29.8102   24.6361    5.1199 C.ar      12 UNK        -0.0762 
     14 C14        30.4126   24.2010    3.9343 C.ar      12 UNK        -0.0782 
     15 C15        28.7147   23.8024    5.7689 C.3       12 UNK         0.0230 
     16 S16        27.1054   24.0394    4.9509 S.3       12 UNK        -0.2608 
     17 C17        26.7079   25.7640    5.3983 C.3       12 UNK        -0.0989 
     18 CA         26.9959   26.7502    4.2406 C.3       5 UNK         0.0716 
     19 N          26.2177   26.4278    3.0412 N.am      5 UNK        -0.4135 
     20 C          26.3510   27.0306    1.8545 C.2       4 UNK         0.5031 
     21 O          27.1520   27.9423    1.6403 O.2       4 UNK        -0.5229 
     22 CA         25.4373   26.5114    0.7353 C.3       4 UNK         0.0329 
     23 CB         24.0034   27.0679    0.8549 C.3       4 UNK        -0.2001 
     24 N          26.0370   26.7200   -0.5881 N.am      4 UNK        -0.4303 
     25 C          26.0264   27.8007   -1.3865 C.2       3 UNK         0.5044 
     26 O          25.3553   28.8121   -1.1834 O.2       3 UNK        -0.5152 
     27 CA         26.9131   27.7588   -2.6513 C.3       3 UNK         0.0319 
     28 CB         28.0212   28.8227   -2.5677 C.3       3 UNK        -0.2001 
     29 N          27.5270   26.4505   -2.9027 N.am      3 UNK        -0.4354 
     30 C          26.8664   25.3728   -3.3575 C.2       2 UNK         0.4964 
     31 O          25.6950   25.4043   -3.7350 O.2       2 UNK        -0.5047 
     32 CA         27.6106   24.0214   -3.3561 C.3       2 UNK         0.0288 
     33 CB         28.1037   23.6779   -4.7711 C.3       2 UNK        -0.2113 
     34 N          28.7445   23.9626   -2.4282 N.am      2 UNK        -0.4145 
     35 C          28.6827   24.1305   -1.0976 C.2       1 UNK         0.5006 
     36 O          27.6236   24.2502   -0.4812 O.2       1 UNK        -0.5103 
     37 C          26.7485   28.2025    4.6929 C.2       5 UNK         0.5055 
     38 O          25.6083   28.6687    4.6438 O.2       5 UNK        -0.5220 
     39 N          27.8248   28.8871    5.1026 N.am      6 UNK        -0.4450 
     40 CA         27.9099   30.2945    5.5250 C.3       6 UNK         0.0367 
     41 CB         26.9411   30.6194    6.6798 C.3       6 UNK        -0.1929 
     42 C          27.7883   31.3147    4.3762 C.2       6 UNK         0.5070 
     43 O          28.3486   32.4051    4.4946 O.2       6 UNK        -0.5237 
     44 N          27.1121   30.9538    3.2765 N.am      7 UNK        -0.4739 
     45 CA         27.2010   31.6529    1.9922 C.3       7 UNK         0.0276 
     46 CB         26.0174   31.2606    1.0970 C.3       7 UNK        -0.1927 
     47 C          28.5529   31.3552    1.3211 C.2       7 UNK         0.5013 
     48 O          29.2283   32.2836    0.8745 O.2       7 UNK        -0.5193 
     49 N          28.9574   30.0767    1.3392 N.am      8 UNK        -0.4253 
     50 CA         30.3394   29.6388    1.1585 C.3       8 UNK         0.0242 
     51 CB         30.3710   28.1090    0.9974 C.3       8 UNK        -0.2000 
     52 C          31.1657   30.0567    2.3852 C.2       8 UNK         0.4948 
     53 O          30.7441   29.7888    3.5115 O.2       8 UNK        -0.5275 
     54 N          32.3231   30.6837    2.1488 N.am      9 UNK        -0.4246 
     55 CA         33.2174   31.2056    3.1903 C.3       9 UNK         0.0261 
     56 CB         33.5844   32.6583    2.8343 C.3       9 UNK        -0.1959 
     57 C          34.4806   30.3432    3.3775 C.2       9 UNK         0.5033 
     58 O          35.4150   30.7828    4.0479 O.2       9 UNK        -0.5390 
     59 N          34.5107   29.1504    2.7665 N.am      10 UNK        -0.4215 
     60 CA         35.6705   28.2537    2.7249 C.3       10 UNK         0.0240 
     61 CB         35.4313   27.1824    1.6470 C.3       10 UNK        -0.1982 
     62 C          36.0345   27.5920    4.0683 C.2       10 UNK         0.4970 
     63 O          37.1817   27.1719    4.2272 O.2       10 UNK        -0.4916 
     64 N          35.0685   27.4765    4.9883 N.am      11 UNK        -0.4279 
     65 CA         35.2522   26.8667    6.3124 C.3       11 UNK         0.1003 
     66 C          36.0274   27.7707    7.3128 C.2       11 UNK         0.5709 
     67 N          36.5831   27.1881    8.3672 N.am      11 UNK        -0.7358 
     68 O          36.1157   28.9875    7.1598 O.2       11 UNK        -0.4999 
     69 C69        33.9149   26.3224    6.8830 C.3       12 UNK        -0.0954 
     70 S70        32.6631   27.5798    7.3332 S.3       12 UNK        -0.2268 
     71 C71        31.7416   27.8671    5.7869 C.3       12 UNK         0.0203 
     72 H72        33.3472   24.9705   -2.4601 H         1 UNK         0.0888 
     73 H73        32.5046   25.8804   -3.7172 H         1 UNK         0.0888 
     74 H74        33.1660   26.7199   -2.3116 H         1 UNK         0.0888 
     75 H75        31.9303   23.8522   -1.1329 H         1 UNK         0.3017 
     76 H76        29.8973   25.0781    0.3502 H         1 UNK         0.0873 
     77 H77        29.4242   22.8686    1.2649 H         1 UNK         0.0745 
     78 H78        30.1600   22.0681   -0.0921 H         1 UNK         0.0745 
     79 H79        33.2373   24.5424    2.2795 H         1 UNK         0.0705 
     80 H80        32.0141   25.2614    1.2826 H         1 UNK         0.0705 
     81 H81        32.6199   26.7305    3.4801 H         1 UNK         0.1334 
     82 H82        29.7912   26.1597    6.6428 H         1 UNK         0.1417 
     83 H83        30.0817   23.2704    3.4979 H         1 UNK         0.1562 
     84 H84        28.6244   24.0361    6.8310 H         1 UNK         0.0748 
     85 H85        28.9834   22.7463    5.7149 H         1 UNK         0.0748 
     86 H86        27.2670   26.0401    6.2943 H         1 UNK         0.0940 
     87 H87        25.6543   25.8069    5.6820 H         1 UNK         0.0940 
     88 H88        28.0481   26.6594    3.9620 H         1 UNK         0.0703 
     89 H89        25.5344   25.6929    3.1458 H         1 UNK         0.3081 
     90 H90        25.3787   25.4273    0.8453 H         1 UNK         0.0719 
     91 H91        23.9917   28.1574    0.9003 H         1 UNK         0.0809 
     92 H92        23.3827   26.7568    0.0148 H         1 UNK         0.0809 
     93 H93        23.5220   26.7085    1.7649 H         1 UNK         0.0809 
     94 H94        26.6504   25.9601   -0.8620 H         1 UNK         0.2990 
     95 H95        26.2730   28.0049   -3.5010 H         1 UNK         0.0690 
     96 H96        28.6306   28.8353   -3.4714 H         1 UNK         0.0788 
     97 H97        28.6833   28.6480   -1.7199 H         1 UNK         0.0788 
     98 H98        27.5984   29.8210   -2.4469 H         1 UNK         0.0788 
     99 H99        28.5011   26.3543   -2.6295 H         1 UNK         0.2993 
    100 H100       26.8921   23.2599   -3.0452 H         1 UNK         0.0949 
    101 H101       28.5523   22.6848   -4.8059 H         1 UNK         0.0767 
    102 H102       27.2782   23.6829   -5.4846 H         1 UNK         0.0767 
    103 H103       28.8449   24.3958   -5.1251 H         1 UNK         0.0767 
    104 H104       29.6608   23.8793   -2.8437 H         1 UNK         0.3013 
    105 H105       28.7232   28.4289    5.0277 H         1 UNK         0.3121 
    106 H106       28.9233   30.4084    5.9141 H         1 UNK         0.0774 
    107 H107       27.1352   31.6171    7.0754 H         1 UNK         0.0815 
    108 H108       25.8992   30.6006    6.3600 H         1 UNK         0.0815 
    109 H109       27.0545   29.9160    7.5045 H         1 UNK         0.0815 
    110 H110       26.6460   30.0551    3.2816 H         1 UNK         0.2987 
    111 H111       27.1473   32.7291    2.1716 H         1 UNK         0.0949 
    112 H112       25.9652   30.1834    0.9474 H         1 UNK         0.0806 
    113 H113       25.0703   31.5811    1.5307 H         1 UNK         0.0806 
    114 H114       26.0986   31.7230    0.1124 H         1 UNK         0.0806 
    115 H115       28.3039   29.3639    1.6584 H         1 UNK         0.3010 
    116 H116       30.7391   30.1036    0.2549 H         1 UNK         0.0829 
    117 H117       29.7178   27.7804    0.1904 H         1 UNK         0.0813 
    118 H118       31.3768   27.7580    0.7657 H         1 UNK         0.0813 
    119 H119       30.0446   27.5994    1.9056 H         1 UNK         0.0813 
    120 H120       32.5950   30.8672    1.1924 H         1 UNK         0.3038 
    121 H121       32.7047   31.2203    4.1546 H         1 UNK         0.0769 
    122 H122       32.6922   33.2747    2.7217 H         1 UNK         0.0811 
    123 H123       34.1523   32.7161    1.9050 H         1 UNK         0.0811 
    124 H124       34.1917   33.1152    3.6170 H         1 UNK         0.0811 
    125 H125       33.7048   28.8814    2.2230 H         1 UNK         0.3204 
    126 H126       36.5353   28.8480    2.4216 H         1 UNK         0.0748 
    127 H127       35.2848   27.6320    0.6646 H         1 UNK         0.0771 
    128 H128       36.2870   26.5102    1.5665 H         1 UNK         0.0771 
    129 H129       34.5579   26.5704    1.8704 H         1 UNK         0.0771 
    130 H130       34.1747   27.9060    4.8176 H         1 UNK         0.2980 
    131 H131       35.8875   25.9920    6.1575 H         1 UNK         0.0545 
    132 H132       36.5129   26.1930    8.5123 H         1 UNK         0.3459 
    133 H133       37.0825   27.7568    9.0330 H         1 UNK         0.3459 
    134 H134       34.1175   25.7435    7.7854 H         1 UNK         0.0616 
    135 H135       33.4844   25.6013    6.1888 H         1 UNK         0.0616 
    136 H136       32.3728   28.4369    5.1055 H         1 UNK         0.0634 
    137 H137       30.8863   28.5068    6.0074 H         1 UNK         0.0634 
@<TRIPOS>BOND
     1    1    2 1    
     2    1   72 1    
     3    1   73 1    
     4    1   74 1    
     5    2    3 2    
     6    2    4 am   BACKBONE|DICT|INTERRES
     7    4    5 1    
     8    4   75 1    
     9    5    6 1    
    10    5   35 1    
    11    5   76 1    
    12    6    7 1    
    13    6   77 1    
    14    6   78 1    
    15    7    8 1    
    16    8    9 1    
    17    8   79 1    
    18    8   80 1    
    19    9   10 ar   
    20    9   14 ar   
    21   10   11 ar   
    22   10   81 1    
    23   11   12 ar   
    24   11   71 1    
    25   12   13 ar   
    26   12   82 1    
    27   13   14 ar   
    28   13   15 1    
    29   14   83 1    
    30   15   16 1    
    31   15   84 1    
    32   15   85 1    
    33   16   17 1    
    34   17   18 1    
    35   17   86 1    
    36   17   87 1    
    37   18   19 1    
    38   18   37 1    
    39   18   88 1    
    40   19   20 am   BACKBONE|DICT|INTERRES
    41   19   89 1    
    42   20   21 2    
    43   20   22 1    
    44   22   23 1    
    45   22   24 1    
    46   22   90 1    
    47   23   91 1    
    48   23   92 1    
    49   23   93 1    
    50   24   25 am   BACKBONE|DICT|INTERRES
    51   24   94 1    
    52   25   26 2    
    53   25   27 1    
    54   27   28 1    
    55   27   29 1    
    56   27   95 1    
    57   28   96 1    
    58   28   97 1    
    59   28   98 1    
    60   29   30 am   BACKBONE|DICT|INTERRES
    61   29   99 1    
    62   30   31 2    
    63   30   32 1    
    64   32   33 1    
    65   32   34 1    
    66   32  100 1    
    67   33  101 1    
    68   33  102 1    
    69   33  103 1    
    70   34   35 am   BACKBONE|DICT|INTERRES
    71   34  104 1    
    72   35   36 2    
    73   37   38 2    
    74   37   39 am   BACKBONE|DICT|INTERRES
    75   39   40 1    
    76   39  105 1    
    77   40   41 1    
    78   40   42 1    
    79   40  106 1    
    80   41  107 1    
    81   41  108 1    
    82   41  109 1    
    83   42   43 2    
    84   42   44 am   BACKBONE|DICT|INTERRES
    85   44   45 1    
    86   44  110 1    
    87   45   46 1    
    88   45   47 1    
    89   45  111 1    
    90   46  112 1    
    91   46  113 1    
    92   46  114 1    
    93   47   48 2    
    94   47   49 am   BACKBONE|DICT|INTERRES
    95   49   50 1    
    96   49  115 1    
    97   50   51 1    
    98   50   52 1    
    99   50  116 1    
   100   51  117 1    
   101   51  118 1    
   102   51  119 1    
   103   52   53 2    
   104   52   54 am   BACKBONE|DICT|INTERRES
   105   54   55 1    
   106   54  120 1    
   107   55   56 1    
   108   55   57 1    
   109   55  121 1    
   110   56  122 1    
   111   56  123 1    
   112   56  124 1    
   113   57   58 2    
   114   57   59 am   BACKBONE|DICT|INTERRES
   115   59   60 1    
   116   59  125 1    
   117   60   61 1    
   118   60   62 1    
   119   60  126 1    
   120   61  127 1    
   121   61  128 1    
   122   61  129 1    
   123   62   63 2    
   124   62   64 am   BACKBONE|DICT|INTERRES
   125   64   65 1    
   126   64  130 1    
   127   65   66 1    
   128   65   69 1    
   129   65  131 1    
   130   66   67 am   BACKBONE|DICT|INTERRES
   131   66   68 2    
   132   67  132 1    
   133   67  133 1    
   134   69   70 1    
   135   69  134 1    
   136   69  135 1    
   137   70   71 1    
   138   71  136 1    
   139   71  137 1    
@<TRIPOS>SUBSTRUCTURE
     1 UNK         1 GROUP             0       ****    0 ROOT    
