@<TRIPOS>MOLECULE
3R136
137   139    1
SMALL
USER_CHARGES


@<TRIPOS>ATOM
      1 CA         27.5377   21.7489   -0.2114 C.3       0 UNK        -0.1979 
      2 C          28.5674   22.7457   -0.7204 C.2       0 UNK         0.4864 
      3 O          28.4217   23.2604   -1.8298 O.2       0 UNK        -0.5359 
      4 N          29.6130   23.0078    0.0724 N.am      1 UNK        -0.4318 
      5 CA         30.7290   23.8924   -0.2834 C.3       1 UNK         0.0824 
      6 C6         31.9910   23.6239    0.5764 C.3       12 UNK        -0.0944 
      7 S7         32.4151   21.8437    0.6603 S.3       12 UNK        -0.2672 
      8 C8         32.8728   21.5833    2.4091 C.3       12 UNK         0.0333 
      9 C9         31.8752   22.1809    3.3940 C.ar      12 UNK        -0.0807 
     10 C10        32.2625   23.2536    4.1991 C.ar      12 UNK        -0.0894 
     11 C11        31.3594   23.8560    5.0769 C.ar      12 UNK        -0.0804 
     12 C12        30.0574   23.3524    5.1716 C.ar      12 UNK        -0.0824 
     13 C13        29.6641   22.2564    4.3923 C.ar      12 UNK        -0.0762 
     14 C14        30.5763   21.6775    3.5025 C.ar      12 UNK        -0.0782 
     15 C15        28.2671   21.6681    4.5265 C.3       12 UNK         0.0230 
     16 S16        27.1264   22.3199    3.2668 S.3       12 UNK        -0.2608 
     17 C17        26.6491   23.9260    3.9850 C.3       12 UNK        -0.0989 
     18 CA         27.2697   25.1353    3.2323 C.3       5 UNK         0.0716 
     19 N          26.9352   25.2282    1.8048 N.am      5 UNK        -0.4135 
     20 C          25.7202   25.2097    1.2416 C.2       4 UNK         0.5031 
     21 O          24.6680   25.1005    1.8731 O.2       4 UNK        -0.5229 
     22 CA         25.6870   25.3857   -0.2907 C.3       4 UNK         0.0329 
     23 CB         24.2565   25.3472   -0.8692 C.3       4 UNK        -0.2001 
     24 N          26.3901   26.5937   -0.7417 N.am      4 UNK        -0.4303 
     25 C          26.1473   27.8587   -0.3674 C.2       3 UNK         0.5044 
     26 O          25.2837   28.1719    0.4511 O.2       3 UNK        -0.5152 
     27 CA         27.0303   28.9440   -1.0111 C.3       3 UNK         0.0319 
     28 CB         26.7108   30.3690   -0.5214 C.3       3 UNK        -0.2001 
     29 N          28.4459   28.6664   -0.7714 N.am      3 UNK        -0.4354 
     30 C          29.2160   27.9129   -1.5664 C.2       2 UNK         0.4964 
     31 O          28.8053   27.3868   -2.6024 O.2       2 UNK        -0.5047 
     32 CA         30.6770   27.6681   -1.1439 C.3       2 UNK         0.0288 
     33 CB         31.1225   28.4622    0.1032 C.3       2 UNK        -0.2113 
     34 N          30.9563   26.2335   -0.9880 N.am      2 UNK        -0.4145 
     35 C          30.3031   25.3721   -0.1920 C.2       1 UNK         0.5006 
     36 O          29.4091   25.7003    0.5936 O.2       1 UNK        -0.5103 
     37 C          27.0569   26.4542    4.0045 C.2       5 UNK         0.5055 
     38 O          27.4455   26.5133    5.1727 O.2       5 UNK        -0.5220 
     39 N          26.5072   27.5028    3.3711 N.am      6 UNK        -0.4450 
     40 CA         26.6305   28.8734    3.8669 C.3       6 UNK         0.0367 
     41 CB         25.4920   29.7541    3.3314 C.3       6 UNK        -0.1929 
     42 C          28.0065   29.4035    3.4410 C.2       6 UNK         0.5070 
     43 O          28.4460   29.1315    2.3204 O.2       6 UNK        -0.5237 
     44 N          28.6683   30.1143    4.3597 N.am      7 UNK        -0.4739 
     45 CA         30.0748   30.4986    4.2548 C.3       7 UNK         0.0276 
     46 CB         30.5185   31.1632    5.5687 C.3       7 UNK        -0.1927 
     47 C          30.4095   31.3945    3.0558 C.2       7 UNK         0.5013 
     48 O          31.3967   31.1298    2.3694 O.2       7 UNK        -0.5193 
     49 N          29.6234   32.4652    2.8647 N.am      8 UNK        -0.4253 
     50 CA         29.8314   33.5903    1.9346 C.3       8 UNK         0.0242 
     51 CB         29.8317   33.1264    0.4637 C.3       8 UNK        -0.2000 
     52 C          31.0817   34.4311    2.2716 C.2       8 UNK         0.4948 
     53 O          30.9665   35.6413    2.4674 O.2       8 UNK        -0.5275 
     54 N          32.2317   33.7609    2.3822 N.am      9 UNK        -0.4246 
     55 CA         33.4724   34.2434    2.9806 C.3       9 UNK         0.0261 
     56 CB         34.5444   34.4503    1.8958 C.3       9 UNK        -0.1959 
     57 C          33.9056   33.2200    4.0399 C.2       9 UNK         0.5033 
     58 O          33.9536   33.5547    5.2238 O.2       9 UNK        -0.5390 
     59 N          34.1427   31.9771    3.6026 N.am      10 UNK        -0.4215 
     60 CA         34.3771   30.7954    4.4268 C.3       10 UNK         0.0240 
     61 CB         35.8143   30.7889    4.9809 C.3       10 UNK        -0.1982 
     62 C          34.1205   29.5734    3.5389 C.2       10 UNK         0.4970 
     63 O          34.6578   29.5299    2.4293 O.2       10 UNK        -0.4916 
     64 N          33.3203   28.6141    4.0234 N.am      11 UNK        -0.4279 
     65 CA         33.0530   27.3505    3.3139 C.3       11 UNK         0.1003 
     66 C          34.1990   26.3062    3.4159 C.2       11 UNK         0.5709 
     67 N          35.1071   26.4095    4.3797 N.am      11 UNK        -0.7358 
     68 O          34.2828   25.4048    2.5868 O.2       11 UNK        -0.4999 
     69 C69        31.6540   26.7469    3.6284 C.3       12 UNK        -0.0954 
     70 S70        31.1920   26.6479    5.3936 S.3       12 UNK        -0.2268 
     71 C71        31.8207   25.0243    5.9406 C.3       12 UNK         0.0203 
     72 H72        27.9418   21.1293    0.5890 H         1 UNK         0.0888 
     73 H73        26.6584   22.2680    0.1676 H         1 UNK         0.0888 
     74 H74        27.2221   21.0869   -1.0173 H         1 UNK         0.0888 
     75 H75        29.6721   22.5852    0.9872 H         1 UNK         0.3017 
     76 H76        30.9875   23.6843   -1.3242 H         1 UNK         0.0873 
     77 H77        32.8513   24.1549    0.1651 H         1 UNK         0.0745 
     78 H78        31.8522   24.0268    1.5781 H         1 UNK         0.0745 
     79 H79        33.8675   22.0032    2.5678 H         1 UNK         0.0705 
     80 H80        32.9623   20.5122    2.5946 H         1 UNK         0.0705 
     81 H81        33.2733   23.6284    4.1333 H         1 UNK         0.1334 
     82 H82        29.3576   23.8087    5.8585 H         1 UNK         0.1417 
     83 H83        30.2765   20.8354    2.8932 H         1 UNK         0.1562 
     84 H84        27.8664   21.8428    5.5261 H         1 UNK         0.0748 
     85 H85        28.3197   20.5840    4.4150 H         1 UNK         0.0748 
     86 H86        26.9448   23.9379    5.0352 H         1 UNK         0.0940 
     87 H87        25.5605   23.9894    3.9961 H         1 UNK         0.0940 
     88 H88        28.3517   24.9901    3.2431 H         1 UNK         0.0703 
     89 H89        27.7481   25.3843    1.2079 H         1 UNK         0.3081 
     90 H90        26.2285   24.5406   -0.7133 H         1 UNK         0.0719 
     91 H91        23.6403   26.1600   -0.4832 H         1 UNK         0.0809 
     92 H92        24.2663   25.4212   -1.9566 H         1 UNK         0.0809 
     93 H93        23.7576   24.4117   -0.6131 H         1 UNK         0.0809 
     94 H94        27.1468   26.4461   -1.3995 H         1 UNK         0.2990 
     95 H95        26.8238   28.9205   -2.0833 H         1 UNK         0.0690 
     96 H96        27.2568   31.1124   -1.1019 H         1 UNK         0.0788 
     97 H97        26.9779   30.5081    0.5254 H         1 UNK         0.0788 
     98 H98        25.6490   30.5955   -0.6259 H         1 UNK         0.0788 
     99 H99        28.8106   28.9633    0.1280 H         1 UNK         0.2993 
    100 H100       31.2853   28.0129   -1.9815 H         1 UNK         0.0949 
    101 H101       30.6042   28.1376    1.0046 H         1 UNK         0.0767 
    102 H102       32.1926   28.3490    0.2705 H         1 UNK         0.0767 
    103 H103       30.9383   29.5311   -0.0150 H         1 UNK         0.0767 
    104 H104       31.6569   25.8636   -1.6153 H         1 UNK         0.3013 
    105 H105       26.2284   27.4050    2.4029 H         1 UNK         0.3121 
    106 H106       26.5621   28.8703    4.9571 H         1 UNK         0.0774 
    107 H107       25.5082   30.7354    3.8068 H         1 UNK         0.0815 
    108 H108       25.5685   29.9195    2.2591 H         1 UNK         0.0815 
    109 H109       24.5169   29.3107    3.5330 H         1 UNK         0.0815 
    110 H110       28.2194   30.2913    5.2471 H         1 UNK         0.2987 
    111 H111       30.6499   29.5802    4.1290 H         1 UNK         0.0949 
    112 H112       29.8763   32.0033    5.8355 H         1 UNK         0.0806 
    113 H113       30.5021   30.4531    6.3958 H         1 UNK         0.0806 
    114 H114       31.5338   31.5519    5.4964 H         1 UNK         0.0806 
    115 H115       28.8456   32.5751    3.5005 H         1 UNK         0.3010 
    116 H116       28.9687   34.2456    2.0666 H         1 UNK         0.0829 
    117 H117       28.9203   32.5791    0.2239 H         1 UNK         0.0813 
    118 H118       29.8846   33.9812   -0.2116 H         1 UNK         0.0813 
    119 H119       30.6781   32.4799    0.2316 H         1 UNK         0.0813 
    120 H120       32.1572   32.7523    2.2538 H         1 UNK         0.3038 
    121 H121       33.3011   35.1955    3.4879 H         1 UNK         0.0769 
    122 H122       35.4931   34.7559    2.3389 H         1 UNK         0.0811 
    123 H123       34.2463   35.2327    1.1977 H         1 UNK         0.0811 
    124 H124       34.7280   33.5445    1.3171 H         1 UNK         0.0811 
    125 H125       34.0756   31.7728    2.6129 H         1 UNK         0.3204 
    126 H126       33.6743   30.7910    5.2607 H         1 UNK         0.0748 
    127 H127       36.5544   30.8195    4.1801 H         1 UNK         0.0771 
    128 H128       35.9941   31.6430    5.6340 H         1 UNK         0.0771 
    129 H129       36.0030   29.8890    5.5674 H         1 UNK         0.0771 
    130 H130       32.9216   28.6972    4.9468 H         1 UNK         0.2980 
    131 H131       33.0196   27.5911    2.2512 H         1 UNK         0.0545 
    132 H132       35.0557   27.1500    5.0594 H         1 UNK         0.3459 
    133 H133       35.8558   25.7367    4.4225 H         1 UNK         0.3459 
    134 H134       31.5241   25.7764    3.1505 H         1 UNK         0.0616 
    135 H135       30.8953   27.3771    3.1643 H         1 UNK         0.0616 
    136 H136       32.9102   25.0667    5.9770 H         1 UNK         0.0634 
    137 H137       31.4950   24.8574    6.9681 H         1 UNK         0.0634 
@<TRIPOS>BOND
     1    1    2 1    
     2    1   72 1    
     3    1   73 1    
     4    1   74 1    
     5    2    3 2    
     6    2    4 am   BACKBONE|DICT|INTERRES
     7    4    5 1    
     8    4   75 1    
     9    5    6 1    
    10    5   35 1    
    11    5   76 1    
    12    6    7 1    
    13    6   77 1    
    14    6   78 1    
    15    7    8 1    
    16    8    9 1    
    17    8   79 1    
    18    8   80 1    
    19    9   10 ar   
    20    9   14 ar   
    21   10   11 ar   
    22   10   81 1    
    23   11   12 ar   
    24   11   71 1    
    25   12   13 ar   
    26   12   82 1    
    27   13   14 ar   
    28   13   15 1    
    29   14   83 1    
    30   15   16 1    
    31   15   84 1    
    32   15   85 1    
    33   16   17 1    
    34   17   18 1    
    35   17   86 1    
    36   17   87 1    
    37   18   19 1    
    38   18   37 1    
    39   18   88 1    
    40   19   20 am   BACKBONE|DICT|INTERRES
    41   19   89 1    
    42   20   21 2    
    43   20   22 1    
    44   22   23 1    
    45   22   24 1    
    46   22   90 1    
    47   23   91 1    
    48   23   92 1    
    49   23   93 1    
    50   24   25 am   BACKBONE|DICT|INTERRES
    51   24   94 1    
    52   25   26 2    
    53   25   27 1    
    54   27   28 1    
    55   27   29 1    
    56   27   95 1    
    57   28   96 1    
    58   28   97 1    
    59   28   98 1    
    60   29   30 am   BACKBONE|DICT|INTERRES
    61   29   99 1    
    62   30   31 2    
    63   30   32 1    
    64   32   33 1    
    65   32   34 1    
    66   32  100 1    
    67   33  101 1    
    68   33  102 1    
    69   33  103 1    
    70   34   35 am   BACKBONE|DICT|INTERRES
    71   34  104 1    
    72   35   36 2    
    73   37   38 2    
    74   37   39 am   BACKBONE|DICT|INTERRES
    75   39   40 1    
    76   39  105 1    
    77   40   41 1    
    78   40   42 1    
    79   40  106 1    
    80   41  107 1    
    81   41  108 1    
    82   41  109 1    
    83   42   43 2    
    84   42   44 am   BACKBONE|DICT|INTERRES
    85   44   45 1    
    86   44  110 1    
    87   45   46 1    
    88   45   47 1    
    89   45  111 1    
    90   46  112 1    
    91   46  113 1    
    92   46  114 1    
    93   47   48 2    
    94   47   49 am   BACKBONE|DICT|INTERRES
    95   49   50 1    
    96   49  115 1    
    97   50   51 1    
    98   50   52 1    
    99   50  116 1    
   100   51  117 1    
   101   51  118 1    
   102   51  119 1    
   103   52   53 2    
   104   52   54 am   BACKBONE|DICT|INTERRES
   105   54   55 1    
   106   54  120 1    
   107   55   56 1    
   108   55   57 1    
   109   55  121 1    
   110   56  122 1    
   111   56  123 1    
   112   56  124 1    
   113   57   58 2    
   114   57   59 am   BACKBONE|DICT|INTERRES
   115   59   60 1    
   116   59  125 1    
   117   60   61 1    
   118   60   62 1    
   119   60  126 1    
   120   61  127 1    
   121   61  128 1    
   122   61  129 1    
   123   62   63 2    
   124   62   64 am   BACKBONE|DICT|INTERRES
   125   64   65 1    
   126   64  130 1    
   127   65   66 1    
   128   65   69 1    
   129   65  131 1    
   130   66   67 am   BACKBONE|DICT|INTERRES
   131   66   68 2    
   132   67  132 1    
   133   67  133 1    
   134   69   70 1    
   135   69  134 1    
   136   69  135 1    
   137   70   71 1    
   138   71  136 1    
   139   71  137 1    
@<TRIPOS>SUBSTRUCTURE
     1 UNK         1 GROUP             0       ****    0 ROOT    
