@<TRIPOS>MOLECULE
3R136
137   139    1
SMALL
USER_CHARGES


@<TRIPOS>ATOM
      1 CA         25.1826   21.8735    2.2474 C.3       0 UNK        -0.1979 
      2 C          25.8987   21.6764    0.9197 C.2       0 UNK         0.4864 
      3 O          25.3848   20.9779    0.0440 O.2       0 UNK        -0.5359 
      4 N          27.0856   22.2769    0.7697 N.am      1 UNK        -0.4318 
      5 CA         27.8910   22.2357   -0.4551 C.3       1 UNK         0.0824 
      6 C6         29.3681   22.6122   -0.1797 C.3       12 UNK        -0.0944 
      7 S7         30.2183   21.3222    0.7861 S.3       12 UNK        -0.2672 
      8 C8         31.5503   22.2873    1.5813 C.3       12 UNK         0.0333 
      9 C9         31.1625   23.0771    2.8348 C.ar      12 UNK        -0.0807 
     10 C10        32.1438   23.8687    3.4397 C.ar      12 UNK        -0.0894 
     11 C11        31.8711   24.5905    4.6051 C.ar      12 UNK        -0.0804 
     12 C12        30.5944   24.5254    5.1713 C.ar      12 UNK        -0.0824 
     13 C13        29.5941   23.7541    4.5702 C.ar      12 UNK        -0.0762 
     14 C14        29.8869   23.0253    3.4137 C.ar      12 UNK        -0.0782 
     15 C15        28.1921   23.7010    5.1616 C.3       12 UNK         0.0230 
     16 S16        27.0188   24.7137    4.2008 S.3       12 UNK        -0.2608 
     17 C17        27.5638   26.4047    4.6145 C.3       12 UNK        -0.0989 
     18 CA         28.5287   26.9814    3.5458 C.3       5 UNK         0.0716 
     19 N          27.8629   27.1537    2.2533 N.am      5 UNK        -0.4135 
     20 C          28.4304   26.9356    1.0627 C.2       4 UNK         0.5031 
     21 O          29.5648   26.4750    0.9137 O.2       4 UNK        -0.5229 
     22 CA         27.5509   27.2712   -0.1548 C.3       4 UNK         0.0329 
     23 CB         27.1982   28.7728   -0.2274 C.3       4 UNK        -0.2001 
     24 N          28.1253   26.7695   -1.4085 N.am      4 UNK        -0.4303 
     25 C          29.1441   27.2611   -2.1334 C.2       3 UNK         0.5044 
     26 O          29.6880   28.3448   -1.9191 O.2       3 UNK        -0.5152 
     27 CA         29.6687   26.3985   -3.3033 C.3       3 UNK         0.0319 
     28 CB         31.1619   26.0783   -3.1119 C.3       3 UNK        -0.2001 
     29 N          28.9451   25.1360   -3.4770 N.am      3 UNK        -0.4354 
     30 C          27.7485   24.9971   -4.0648 C.2       2 UNK         0.4964 
     31 O          27.1489   25.9147   -4.6248 O.2       2 UNK        -0.5047 
     32 CA         27.0926   23.6049   -3.9767 C.3       2 UNK         0.0288 
     33 CB         27.3662   22.7993   -5.2573 C.3       2 UNK        -0.2113 
     34 N          27.5182   22.8193   -2.8089 N.am      2 UNK        -0.4145 
     35 C          27.2926   23.1619   -1.5311 C.2       1 UNK         0.5006 
     36 O          26.6975   24.1897   -1.1978 O.2       1 UNK        -0.5103 
     37 C          29.1451   28.3174    4.0021 C.2       5 UNK         0.5055 
     38 O          28.9274   29.3533    3.3653 O.2       5 UNK        -0.5220 
     39 N          29.8937   28.2697    5.1148 N.am      6 UNK        -0.4450 
     40 CA         30.6933   29.3535    5.7042 C.3       6 UNK         0.0367 
     41 CB         31.2667   28.8808    7.0498 C.3       6 UNK        -0.1929 
     42 C          29.9804   30.7043    5.8919 C.2       6 UNK         0.5070 
     43 O          30.6454   31.7374    5.8474 O.2       6 UNK        -0.5237 
     44 N          28.6498   30.6879    6.0500 N.am      7 UNK        -0.4739 
     45 CA         27.7943   31.8785    6.1000 C.3       7 UNK         0.0276 
     46 CB         26.3481   31.4447    6.3890 C.3       7 UNK        -0.1927 
     47 C          27.8494   32.7510    4.8284 C.2       7 UNK         0.5013 
     48 O          27.5971   33.9531    4.9236 O.2       7 UNK        -0.5193 
     49 N          28.1824   32.1444    3.6802 N.am      8 UNK        -0.4253 
     50 CA         28.3822   32.8256    2.3996 C.3       8 UNK         0.0242 
     51 CB         27.2907   32.3824    1.4124 C.3       8 UNK        -0.2000 
     52 C          29.7792   32.5562    1.8182 C.2       8 UNK         0.4948 
     53 O          30.3727   33.4694    1.2440 O.2       8 UNK        -0.5275 
     54 N          30.2853   31.3232    1.9641 N.am      9 UNK        -0.4246 
     55 CA         31.5526   30.8693    1.3827 C.3       9 UNK         0.0261 
     56 CB         31.4811   29.3488    1.1638 C.3       9 UNK        -0.1959 
     57 C          32.7954   31.2192    2.2187 C.2       9 UNK         0.5033 
     58 O          33.9072   30.9766    1.7456 O.2       9 UNK        -0.5390 
     59 N          32.6098   31.7258    3.4474 N.am      10 UNK        -0.4215 
     60 CA         33.6182   32.0498    4.4702 C.3       10 UNK         0.0240 
     61 CB         34.6321   33.0985    3.9707 C.3       10 UNK        -0.1982 
     62 C          34.3315   30.8241    5.0736 C.2       10 UNK         0.4970 
     63 O          34.4764   30.7654    6.2952 O.2       10 UNK        -0.4916 
     64 N          34.7483   29.8772    4.2232 N.am      11 UNK        -0.4279 
     65 CA         35.5079   28.6610    4.5576 C.3       11 UNK         0.1003 
     66 C          36.9080   28.9717    5.1777 C.2       11 UNK         0.5709 
     67 N          37.5370   28.0253    5.8629 N.am      11 UNK        -0.7358 
     68 O          37.4677   30.0517    4.9931 O.2       11 UNK        -0.4999 
     69 C69        34.6608   27.6301    5.3645 C.3       12 UNK        -0.0954 
     70 S70        33.2255   27.0056    4.4255 S.3       12 UNK        -0.2268 
     71 C71        32.9725   25.4089    5.2621 C.3       12 UNK         0.0203 
     72 H72        25.8724   22.1884    3.0334 H         1 UNK         0.0888 
     73 H73        24.4031   22.6326    2.1461 H         1 UNK         0.0888 
     74 H74        24.7141   20.9397    2.5670 H         1 UNK         0.0888 
     75 H75        27.4300   22.8823    1.4997 H         1 UNK         0.3017 
     76 H76        27.8609   21.2158   -0.8461 H         1 UNK         0.0873 
     77 H77        29.4330   23.5703    0.3417 H         1 UNK         0.0745 
     78 H78        29.9264   22.7320   -1.1103 H         1 UNK         0.0745 
     79 H79        31.9795   22.9678    0.8440 H         1 UNK         0.0705 
     80 H80        32.3446   21.5907    1.8534 H         1 UNK         0.0705 
     81 H81        33.1343   23.9163    3.0072 H         1 UNK         0.1334 
     82 H82        30.3801   25.0725    6.0788 H         1 UNK         0.1417 
     83 H83        29.1083   22.4194    2.9758 H         1 UNK         0.1562 
     84 H84        28.1928   24.0237    6.2040 H         1 UNK         0.0748 
     85 H85        27.8416   22.6677    5.1663 H         1 UNK         0.0748 
     86 H86        28.0192   26.3827    5.6057 H         1 UNK         0.0940 
     87 H87        26.6781   27.0356    4.7111 H         1 UNK         0.0940 
     88 H88        29.3627   26.2893    3.4216 H         1 UNK         0.0703 
     89 H89        26.9401   27.5598    2.2859 H         1 UNK         0.3081 
     90 H90        26.6186   26.7185   -0.0286 H         1 UNK         0.0719 
     91 H91        28.0870   29.4026   -0.1755 H         1 UNK         0.0809 
     92 H92        26.6682   29.0140   -1.1488 H         1 UNK         0.0809 
     93 H93        26.5505   29.0632    0.5998 H         1 UNK         0.0809 
     94 H94        27.7689   25.8574   -1.6702 H         1 UNK         0.2990 
     95 H95        29.5607   26.9908   -4.2145 H         1 UNK         0.0690 
     96 H96        31.5572   25.5038   -3.9498 H         1 UNK         0.0788 
     97 H97        31.3371   25.5088   -2.1980 H         1 UNK         0.0788 
     98 H98        31.7533   26.9925   -3.0425 H         1 UNK         0.0788 
     99 H99        29.3663   24.3188   -3.0615 H         1 UNK         0.2993 
    100 H100       26.0148   23.7626   -3.8939 H         1 UNK         0.0949 
    101 H101       26.8320   21.8488   -5.2506 H         1 UNK         0.0767 
    102 H102       27.0359   23.3473   -6.1411 H         1 UNK         0.0767 
    103 H103       28.4290   22.5879   -5.3833 H         1 UNK         0.0767 
    104 H104       28.0155   21.9613   -3.0031 H         1 UNK         0.3013 
    105 H105       30.0106   27.3712    5.5572 H         1 UNK         0.3121 
    106 H106       31.5274   29.5264    5.0224 H         1 UNK         0.0774 
    107 H107       31.8538   27.9698    6.9415 H         1 UNK         0.0815 
    108 H108       31.9282   29.6363    7.4769 H         1 UNK         0.0815 
    109 H109       30.4785   28.6870    7.7784 H         1 UNK         0.0815 
    110 H110       28.1851   29.7923    6.0716 H         1 UNK         0.2987 
    111 H111       28.1413   32.4982    6.9298 H         1 UNK         0.0949 
    112 H112       25.9555   30.7995    5.6019 H         1 UNK         0.0806 
    113 H113       26.2751   30.9067    7.3344 H         1 UNK         0.0806 
    114 H114       25.6878   32.3103    6.4600 H         1 UNK         0.0806 
    115 H115       28.3683   31.1454    3.7021 H         1 UNK         0.3010 
    116 H116       28.3000   33.9070    2.5287 H         1 UNK         0.0829 
    117 H117       26.2996   32.6646    1.7680 H         1 UNK         0.0813 
    118 H118       27.4306   32.8480    0.4358 H         1 UNK         0.0813 
    119 H119       27.2978   31.3028    1.2665 H         1 UNK         0.0813 
    120 H120       29.7344   30.6095    2.4395 H         1 UNK         0.3038 
    121 H121       31.6774   31.3418    0.4059 H         1 UNK         0.0769 
    122 H122       32.3626   28.9857    0.6340 H         1 UNK         0.0811 
    123 H123       30.6138   29.0754    0.5635 H         1 UNK         0.0811 
    124 H124       31.4238   28.8028    2.1060 H         1 UNK         0.0811 
    125 H125       31.6543   31.8585    3.7534 H         1 UNK         0.3204 
    126 H126       33.0649   32.5149    5.2869 H         1 UNK         0.0748 
    127 H127       35.2914   33.4140    4.7804 H         1 UNK         0.0771 
    128 H128       35.2672   32.7115    3.1735 H         1 UNK         0.0771 
    129 H129       34.1283   33.9898    3.5964 H         1 UNK         0.0771 
    130 H130       34.6052   30.0567    3.2332 H         1 UNK         0.2980 
    131 H131       35.7426   28.2047    3.5956 H         1 UNK         0.0545 
    132 H132       37.1194   27.1204    6.0091 H         1 UNK         0.3459 
    133 H133       38.4501   28.2229    6.2414 H         1 UNK         0.3459 
    134 H134       35.2663   26.7641    5.6322 H         1 UNK         0.0616 
    135 H135       34.3123   28.0595    6.3046 H         1 UNK         0.0616 
    136 H136       33.9022   24.8381    5.2430 H         1 UNK         0.0634 
    137 H137       32.7423   25.5877    6.3135 H         1 UNK         0.0634 
@<TRIPOS>BOND
     1    1    2 1    
     2    1   72 1    
     3    1   73 1    
     4    1   74 1    
     5    2    3 2    
     6    2    4 am   BACKBONE|DICT|INTERRES
     7    4    5 1    
     8    4   75 1    
     9    5    6 1    
    10    5   35 1    
    11    5   76 1    
    12    6    7 1    
    13    6   77 1    
    14    6   78 1    
    15    7    8 1    
    16    8    9 1    
    17    8   79 1    
    18    8   80 1    
    19    9   10 ar   
    20    9   14 ar   
    21   10   11 ar   
    22   10   81 1    
    23   11   12 ar   
    24   11   71 1    
    25   12   13 ar   
    26   12   82 1    
    27   13   14 ar   
    28   13   15 1    
    29   14   83 1    
    30   15   16 1    
    31   15   84 1    
    32   15   85 1    
    33   16   17 1    
    34   17   18 1    
    35   17   86 1    
    36   17   87 1    
    37   18   19 1    
    38   18   37 1    
    39   18   88 1    
    40   19   20 am   BACKBONE|DICT|INTERRES
    41   19   89 1    
    42   20   21 2    
    43   20   22 1    
    44   22   23 1    
    45   22   24 1    
    46   22   90 1    
    47   23   91 1    
    48   23   92 1    
    49   23   93 1    
    50   24   25 am   BACKBONE|DICT|INTERRES
    51   24   94 1    
    52   25   26 2    
    53   25   27 1    
    54   27   28 1    
    55   27   29 1    
    56   27   95 1    
    57   28   96 1    
    58   28   97 1    
    59   28   98 1    
    60   29   30 am   BACKBONE|DICT|INTERRES
    61   29   99 1    
    62   30   31 2    
    63   30   32 1    
    64   32   33 1    
    65   32   34 1    
    66   32  100 1    
    67   33  101 1    
    68   33  102 1    
    69   33  103 1    
    70   34   35 am   BACKBONE|DICT|INTERRES
    71   34  104 1    
    72   35   36 2    
    73   37   38 2    
    74   37   39 am   BACKBONE|DICT|INTERRES
    75   39   40 1    
    76   39  105 1    
    77   40   41 1    
    78   40   42 1    
    79   40  106 1    
    80   41  107 1    
    81   41  108 1    
    82   41  109 1    
    83   42   43 2    
    84   42   44 am   BACKBONE|DICT|INTERRES
    85   44   45 1    
    86   44  110 1    
    87   45   46 1    
    88   45   47 1    
    89   45  111 1    
    90   46  112 1    
    91   46  113 1    
    92   46  114 1    
    93   47   48 2    
    94   47   49 am   BACKBONE|DICT|INTERRES
    95   49   50 1    
    96   49  115 1    
    97   50   51 1    
    98   50   52 1    
    99   50  116 1    
   100   51  117 1    
   101   51  118 1    
   102   51  119 1    
   103   52   53 2    
   104   52   54 am   BACKBONE|DICT|INTERRES
   105   54   55 1    
   106   54  120 1    
   107   55   56 1    
   108   55   57 1    
   109   55  121 1    
   110   56  122 1    
   111   56  123 1    
   112   56  124 1    
   113   57   58 2    
   114   57   59 am   BACKBONE|DICT|INTERRES
   115   59   60 1    
   116   59  125 1    
   117   60   61 1    
   118   60   62 1    
   119   60  126 1    
   120   61  127 1    
   121   61  128 1    
   122   61  129 1    
   123   62   63 2    
   124   62   64 am   BACKBONE|DICT|INTERRES
   125   64   65 1    
   126   64  130 1    
   127   65   66 1    
   128   65   69 1    
   129   65  131 1    
   130   66   67 am   BACKBONE|DICT|INTERRES
   131   66   68 2    
   132   67  132 1    
   133   67  133 1    
   134   69   70 1    
   135   69  134 1    
   136   69  135 1    
   137   70   71 1    
   138   71  136 1    
   139   71  137 1    
@<TRIPOS>SUBSTRUCTURE
     1 UNK         1 GROUP             0       ****    0 ROOT    
