@<TRIPOS>MOLECULE
3R136
137   139    1
SMALL
USER_CHARGES


@<TRIPOS>ATOM
      1 CA         30.2689   18.6436   -1.4314 C.3       0 UNK        -0.1979 
      2 C          29.8177   20.0412   -1.8276 C.2       0 UNK         0.4864 
      3 O          28.9169   20.1851   -2.6553 O.2       0 UNK        -0.5359 
      4 N          30.4169   21.0780   -1.2289 N.am      1 UNK        -0.4318 
      5 CA         30.1637   22.5054   -1.4771 C.3       1 UNK         0.0824 
      6 C6         31.4060   23.3583   -1.0970 C.3       12 UNK        -0.0944 
      7 S7         31.9701   23.1293    0.6314 S.3       12 UNK        -0.2672 
      8 C8         31.6694   24.7823    1.3407 C.3       12 UNK         0.0333 
      9 C9         31.0570   24.7294    2.7332 C.ar      12 UNK        -0.0807 
     10 C10        31.5975   25.4931    3.7708 C.ar      12 UNK        -0.0894 
     11 C11        30.9756   25.5330    5.0230 C.ar      12 UNK        -0.0804 
     12 C12        29.8149   24.7844    5.2445 C.ar      12 UNK        -0.0824 
     13 C13        29.2625   24.0197    4.2113 C.ar      12 UNK        -0.0762 
     14 C14        29.8947   23.9898    2.9649 C.ar      12 UNK        -0.0782 
     15 C15        27.9487   23.2769    4.4094 C.3       12 UNK         0.0230 
     16 S16        26.6723   23.8391    3.2316 S.3       12 UNK        -0.2608 
     17 C17        26.2742   25.5097    3.8407 C.3       12 UNK        -0.0989 
     18 CA         27.2324   26.6140    3.3258 C.3       5 UNK         0.0716 
     19 N          27.2724   26.7414    1.8643 N.am      5 UNK        -0.4135 
     20 C          28.1658   27.5101    1.2212 C.2       4 UNK         0.5031 
     21 O          29.0588   28.1274    1.8044 O.2       4 UNK        -0.5229 
     22 CA         28.0520   27.6451   -0.3074 C.3       4 UNK         0.0329 
     23 CB         29.4333   27.6844   -0.9875 C.3       4 UNK        -0.2001 
     24 N          27.2616   26.5743   -0.9172 N.am      4 UNK        -0.4303 
     25 C          26.1203   26.7546   -1.5981 C.2       3 UNK         0.5044 
     26 O          25.5555   27.8439   -1.7062 O.2       3 UNK        -0.5152 
     27 CA         25.5017   25.5337   -2.3089 C.3       3 UNK         0.0319 
     28 CB         25.7200   25.6324   -3.8280 C.3       3 UNK        -0.2001 
     29 N          26.0219   24.2476   -1.8425 N.am      3 UNK        -0.4354 
     30 C          25.7406   23.6993   -0.6537 C.2       2 UNK         0.4964 
     31 O          24.9575   24.1969    0.1553 O.2       2 UNK        -0.5047 
     32 CA         26.4655   22.3880   -0.2994 C.3       2 UNK         0.0288 
     33 CB         25.5735   21.1787   -0.6232 C.3       2 UNK        -0.2113 
     34 N          27.7746   22.1996   -0.9374 N.am      2 UNK        -0.4145 
     35 C          28.8364   23.0153   -0.8554 C.2       1 UNK         0.5006 
     36 O          28.7857   24.1277   -0.3277 O.2       1 UNK        -0.5103 
     37 C          26.8983   27.9599    3.9955 C.2       5 UNK         0.5055 
     38 O          25.9562   28.6349    3.5740 O.2       5 UNK        -0.5220 
     39 N          27.6798   28.3011    5.0294 N.am      6 UNK        -0.4450 
     40 CA         27.6187   29.5246    5.8380 C.3       6 UNK         0.0367 
     41 CB         26.2561   29.6618    6.5511 C.3       6 UNK        -0.1929 
     42 C          28.0229   30.8109    5.0881 C.2       6 UNK         0.5070 
     43 O          27.8281   31.9002    5.6306 O.2       6 UNK        -0.5237 
     44 N          28.6032   30.6914    3.8849 N.am      7 UNK        -0.4739 
     45 CA         29.1940   31.8125    3.1557 C.3       7 UNK         0.0276 
     46 CB         29.2763   31.4703    1.6590 C.3       7 UNK        -0.1927 
     47 C          30.5902   32.0961    3.7224 C.2       7 UNK         0.5013 
     48 O          31.4125   31.1793    3.7740 O.2       7 UNK        -0.5193 
     49 N          30.8561   33.3521    4.1059 N.am      8 UNK        -0.4253 
     50 CA         32.1236   33.7882    4.7093 C.3       8 UNK         0.0242 
     51 CB         32.0264   35.2732    5.0933 C.3       8 UNK        -0.2000 
     52 C          33.3593   33.5391    3.8257 C.2       8 UNK         0.4948 
     53 O          34.4284   33.2334    4.3528 O.2       8 UNK        -0.5275 
     54 N          33.1791   33.6240    2.5006 N.am      9 UNK        -0.4246 
     55 CA         34.1979   33.3046    1.4985 C.3       9 UNK         0.0261 
     56 CB         33.7257   33.8100    0.1251 C.3       9 UNK        -0.1959 
     57 C          34.5517   31.8060    1.4256 C.2       9 UNK         0.5033 
     58 O          35.6432   31.4795    0.9567 O.2       9 UNK        -0.5390 
     59 N          33.6396   30.9293    1.8692 N.am      10 UNK        -0.4215 
     60 CA         33.8292   29.4805    1.9008 C.3       10 UNK         0.0240 
     61 CB         32.5217   28.7802    1.4921 C.3       10 UNK        -0.1982 
     62 C          34.2820   29.0196    3.2920 C.2       10 UNK         0.4970 
     63 O          35.2553   28.2714    3.3892 O.2       10 UNK        -0.4916 
     64 N          33.5652   29.4572    4.3350 N.am      11 UNK        -0.4279 
     65 CA         33.7890   29.0364    5.7262 C.3       11 UNK         0.1003 
     66 C          34.9363   29.7891    6.4550 C.2       11 UNK         0.5709 
     67 N          35.4108   30.9294    5.9689 N.am      11 UNK        -0.7358 
     68 O          35.4184   29.3174    7.4822 O.2       11 UNK        -0.4999 
     69 C69        32.4818   29.0584    6.5655 C.3       12 UNK        -0.0954 
     70 S70        31.1015   28.1638    5.7772 S.3       12 UNK        -0.2268 
     71 C71        31.5409   26.4303    6.1110 C.3       12 UNK         0.0203 
     72 H72        30.6394   18.1081   -2.3050 H         1 UNK         0.0888 
     73 H73        31.0639   18.6683   -0.6863 H         1 UNK         0.0888 
     74 H74        29.4320   18.0825   -1.0166 H         1 UNK         0.0888 
     75 H75        31.1222   20.8996   -0.5270 H         1 UNK         0.3017 
     76 H76        30.0290   22.6234   -2.5545 H         1 UNK         0.0873 
     77 H77        32.2388   23.0752   -1.7426 H         1 UNK         0.0745 
     78 H78        31.2336   24.4137   -1.3141 H         1 UNK         0.0745 
     79 H79        30.9899   25.3547    0.7111 H         1 UNK         0.0705 
     80 H80        32.6154   25.3245    1.3494 H         1 UNK         0.0705 
     81 H81        32.4798   26.0941    3.5964 H         1 UNK         0.1334 
     82 H82        29.3236   24.8269    6.2071 H         1 UNK         0.1417 
     83 H83        29.4524   23.4245    2.1563 H         1 UNK         0.1562 
     84 H84        27.5781   23.3890    5.4294 H         1 UNK         0.0748 
     85 H85        28.1214   22.2106    4.2584 H         1 UNK         0.0748 
     86 H86        26.2702   25.4804    4.9323 H         1 UNK         0.0940 
     87 H87        25.2479   25.7356    3.5444 H         1 UNK         0.0940 
     88 H88        28.2459   26.3561    3.6270 H         1 UNK         0.0703 
     89 H89        26.5580   26.2586    1.3398 H         1 UNK         0.3081 
     90 H90        27.5773   28.6131   -0.4788 H         1 UNK         0.0719 
     91 H91        29.9786   26.7526   -0.8423 H         1 UNK         0.0809 
     92 H92        29.3394   27.8516   -2.0604 H         1 UNK         0.0809 
     93 H93        30.0481   28.4927   -0.5904 H         1 UNK         0.0809 
     94 H94        27.6537   25.6394   -0.8338 H         1 UNK         0.2990 
     95 H95        24.4267   25.5570   -2.1172 H         1 UNK         0.0690 
     96 H96        25.2263   24.8153   -4.3546 H         1 UNK         0.0788 
     97 H97        26.7797   25.6089   -4.0860 H         1 UNK         0.0788 
     98 H98        25.3097   26.5631   -4.2224 H         1 UNK         0.0788 
     99 H99        26.6728   23.7694   -2.4481 H         1 UNK         0.2993 
    100 H100       26.6395   22.3994    0.7764 H         1 UNK         0.0949 
    101 H101       25.3981   21.0834   -1.6956 H         1 UNK         0.0767 
    102 H102       26.0223   20.2492   -0.2721 H         1 UNK         0.0767 
    103 H103       24.6001   21.2694   -0.1387 H         1 UNK         0.0767 
    104 H104       27.9102   21.3357   -1.4549 H         1 UNK         0.3013 
    105 H105       28.4544   27.6903    5.2543 H         1 UNK         0.3121 
    106 H106       28.3735   29.3966    6.6151 H         1 UNK         0.0774 
    107 H107       26.2783   30.4694    7.2838 H         1 UNK         0.0815 
    108 H108       25.4509   29.8860    5.8511 H         1 UNK         0.0815 
    109 H109       25.9933   28.7496    7.0865 H         1 UNK         0.0815 
    110 H110       28.7764   29.7674    3.5083 H         1 UNK         0.2987 
    111 H111       28.5606   32.6947    3.2725 H         1 UNK         0.0949 
    112 H112       29.6545   32.3169    1.0850 H         1 UNK         0.0806 
    113 H113       29.9420   30.6274    1.4705 H         1 UNK         0.0806 
    114 H114       28.2961   31.2152    1.2557 H         1 UNK         0.0806 
    115 H115       30.1272   34.0479    4.0332 H         1 UNK         0.3010 
    116 H116       32.2626   33.2076    5.6240 H         1 UNK         0.0829 
    117 H117       31.2198   35.4477    5.8058 H         1 UNK         0.0813 
    118 H118       32.9496   35.6155    5.5634 H         1 UNK         0.0813 
    119 H119       31.8501   35.9063    4.2228 H         1 UNK         0.0813 
    120 H120       32.2671   33.8895    2.1581 H         1 UNK         0.3038 
    121 H121       35.1111   33.8413    1.7650 H         1 UNK         0.0769 
    122 H122       34.4776   33.6161   -0.6413 H         1 UNK         0.0811 
    123 H123       33.5485   34.8856    0.1362 H         1 UNK         0.0811 
    124 H124       32.8045   33.3191   -0.1917 H         1 UNK         0.0811 
    125 H125       32.7948   31.2767    2.3099 H         1 UNK         0.3204 
    126 H126       34.5982   29.1889    1.1821 H         1 UNK         0.0748 
    127 H127       32.6546   27.6996    1.4579 H         1 UNK         0.0771 
    128 H128       31.7086   28.9817    2.1910 H         1 UNK         0.0771 
    129 H129       32.1962   29.0973    0.5017 H         1 UNK         0.0771 
    130 H130       32.7593   30.0587    4.1741 H         1 UNK         0.2980 
    131 H131       34.1185   27.9970    5.6934 H         1 UNK         0.0545 
    132 H132       36.1597   31.3918    6.4583 H         1 UNK         0.3459 
    133 H133       34.9939   31.3790    5.1638 H         1 UNK         0.3459 
    134 H134       32.1564   30.0883    6.7235 H         1 UNK         0.0616 
    135 H135       32.6487   28.6327    7.5567 H         1 UNK         0.0616 
    136 H136       31.1636   26.1448    7.0940 H         1 UNK         0.0634 
    137 H137       32.6235   26.3090    6.1468 H         1 UNK         0.0634 
@<TRIPOS>BOND
     1    1    2 1    
     2    1   72 1    
     3    1   73 1    
     4    1   74 1    
     5    2    3 2    
     6    2    4 am   BACKBONE|DICT|INTERRES
     7    4    5 1    
     8    4   75 1    
     9    5    6 1    
    10    5   35 1    
    11    5   76 1    
    12    6    7 1    
    13    6   77 1    
    14    6   78 1    
    15    7    8 1    
    16    8    9 1    
    17    8   79 1    
    18    8   80 1    
    19    9   10 ar   
    20    9   14 ar   
    21   10   11 ar   
    22   10   81 1    
    23   11   12 ar   
    24   11   71 1    
    25   12   13 ar   
    26   12   82 1    
    27   13   14 ar   
    28   13   15 1    
    29   14   83 1    
    30   15   16 1    
    31   15   84 1    
    32   15   85 1    
    33   16   17 1    
    34   17   18 1    
    35   17   86 1    
    36   17   87 1    
    37   18   19 1    
    38   18   37 1    
    39   18   88 1    
    40   19   20 am   BACKBONE|DICT|INTERRES
    41   19   89 1    
    42   20   21 2    
    43   20   22 1    
    44   22   23 1    
    45   22   24 1    
    46   22   90 1    
    47   23   91 1    
    48   23   92 1    
    49   23   93 1    
    50   24   25 am   BACKBONE|DICT|INTERRES
    51   24   94 1    
    52   25   26 2    
    53   25   27 1    
    54   27   28 1    
    55   27   29 1    
    56   27   95 1    
    57   28   96 1    
    58   28   97 1    
    59   28   98 1    
    60   29   30 am   BACKBONE|DICT|INTERRES
    61   29   99 1    
    62   30   31 2    
    63   30   32 1    
    64   32   33 1    
    65   32   34 1    
    66   32  100 1    
    67   33  101 1    
    68   33  102 1    
    69   33  103 1    
    70   34   35 am   BACKBONE|DICT|INTERRES
    71   34  104 1    
    72   35   36 2    
    73   37   38 2    
    74   37   39 am   BACKBONE|DICT|INTERRES
    75   39   40 1    
    76   39  105 1    
    77   40   41 1    
    78   40   42 1    
    79   40  106 1    
    80   41  107 1    
    81   41  108 1    
    82   41  109 1    
    83   42   43 2    
    84   42   44 am   BACKBONE|DICT|INTERRES
    85   44   45 1    
    86   44  110 1    
    87   45   46 1    
    88   45   47 1    
    89   45  111 1    
    90   46  112 1    
    91   46  113 1    
    92   46  114 1    
    93   47   48 2    
    94   47   49 am   BACKBONE|DICT|INTERRES
    95   49   50 1    
    96   49  115 1    
    97   50   51 1    
    98   50   52 1    
    99   50  116 1    
   100   51  117 1    
   101   51  118 1    
   102   51  119 1    
   103   52   53 2    
   104   52   54 am   BACKBONE|DICT|INTERRES
   105   54   55 1    
   106   54  120 1    
   107   55   56 1    
   108   55   57 1    
   109   55  121 1    
   110   56  122 1    
   111   56  123 1    
   112   56  124 1    
   113   57   58 2    
   114   57   59 am   BACKBONE|DICT|INTERRES
   115   59   60 1    
   116   59  125 1    
   117   60   61 1    
   118   60   62 1    
   119   60  126 1    
   120   61  127 1    
   121   61  128 1    
   122   61  129 1    
   123   62   63 2    
   124   62   64 am   BACKBONE|DICT|INTERRES
   125   64   65 1    
   126   64  130 1    
   127   65   66 1    
   128   65   69 1    
   129   65  131 1    
   130   66   67 am   BACKBONE|DICT|INTERRES
   131   66   68 2    
   132   67  132 1    
   133   67  133 1    
   134   69   70 1    
   135   69  134 1    
   136   69  135 1    
   137   70   71 1    
   138   71  136 1    
   139   71  137 1    
@<TRIPOS>SUBSTRUCTURE
     1 UNK         1 GROUP             0       ****    0 ROOT    
