@<TRIPOS>MOLECULE
3R136
137   139    1
SMALL
USER_CHARGES


@<TRIPOS>ATOM
      1 CA         33.8043   22.9738    1.6237 C.3       0 UNK        -0.1979 
      2 C          32.3353   23.0289    1.2351 C.2       0 UNK         0.4864 
      3 O          31.8563   24.0765    0.8064 O.2       0 UNK        -0.5359 
      4 N          31.6188   21.9026    1.3537 N.am      1 UNK        -0.4318 
      5 CA         30.1608   21.7817    1.1768 C.3       1 UNK         0.0824 
      6 C6         29.6244   20.4078    1.6613 C.3       12 UNK        -0.0944 
      7 S7         30.2602   19.9010    3.2977 S.3       12 UNK        -0.2672 
      8 C8         29.0123   20.5943    4.4335 C.3       12 UNK         0.0333 
      9 C9         29.0053   22.1197    4.4606 C.ar      12 UNK        -0.0807 
     10 C10        30.1920   22.8363    4.6606 C.ar      12 UNK        -0.0894 
     11 C11        30.1878   24.2346    4.6810 C.ar      12 UNK        -0.0804 
     12 C12        28.9749   24.9150    4.5373 C.ar      12 UNK        -0.0824 
     13 C13        27.7829   24.2140    4.3403 C.ar      12 UNK        -0.0762 
     14 C14        27.8029   22.8168    4.2991 C.ar      12 UNK        -0.0782 
     15 C15        26.4797   24.9778    4.1762 C.3       12 UNK         0.0230 
     16 S16        26.1845   25.3994    2.4306 S.3       12 UNK        -0.2608 
     17 C17        25.2477   26.9553    2.6054 C.3       12 UNK        -0.0989 
     18 CA         26.1549   28.1914    2.3469 C.3       5 UNK         0.0716 
     19 N          26.6710   28.2650    0.9714 N.am      5 UNK        -0.4135 
     20 C          25.9510   28.4651   -0.1438 C.2       4 UNK         0.5031 
     21 O          24.7276   28.6080   -0.1561 O.2       4 UNK        -0.5229 
     22 CA         26.7153   28.5514   -1.4807 C.3       4 UNK         0.0329 
     23 CB         26.7537   30.0080   -1.9748 C.3       4 UNK        -0.2001 
     24 N          28.0866   28.0301   -1.4450 N.am      4 UNK        -0.4303 
     25 C          28.4190   26.7411   -1.2916 C.2       3 UNK         0.5044 
     26 O          27.5968   25.8389   -1.1217 O.2       3 UNK        -0.5152 
     27 CA         29.9310   26.4423   -1.2898 C.3       3 UNK         0.0319 
     28 CB         30.5562   26.9027    0.0379 C.3       3 UNK        -0.2001 
     29 N          30.2467   25.0248   -1.4866 N.am      3 UNK        -0.4354 
     30 C          29.9602   24.3032   -2.5828 C.2       2 UNK         0.4964 
     31 O          29.4777   24.7876   -3.6082 O.2       2 UNK        -0.5047 
     32 CA         30.2747   22.7914   -2.5575 C.3       2 UNK         0.0288 
     33 CB         31.4724   22.4723   -3.4684 C.3       2 UNK        -0.2113 
     34 N          30.5535   22.2749   -1.2158 N.am      2 UNK        -0.4145 
     35 C          29.6430   22.0987   -0.2473 C.2       1 UNK         0.5006 
     36 O          28.4296   22.1903   -0.4388 O.2       1 UNK        -0.5103 
     37 C          25.5193   29.5283    2.7930 C.2       5 UNK         0.5055 
     38 O          24.4634   29.5375    3.4296 O.2       5 UNK        -0.5220 
     39 N          26.1933   30.6345    2.4491 N.am      6 UNK        -0.4450 
     40 CA         25.8917   31.9880    2.9082 C.3       6 UNK         0.0367 
     41 CB         26.1603   32.9781    1.7551 C.3       6 UNK        -0.1929 
     42 C          26.7219   32.2519    4.1772 C.2       6 UNK         0.5070 
     43 O          26.4549   31.6357    5.2103 O.2       6 UNK        -0.5237 
     44 N          27.7311   33.1269    4.0856 N.am      7 UNK        -0.4739 
     45 CA         28.7517   33.3085    5.1187 C.3       7 UNK         0.0276 
     46 CB         29.4987   34.6276    4.8619 C.3       7 UNK        -0.1927 
     47 C          29.7370   32.1288    5.1064 C.2       7 UNK         0.5013 
     48 O          30.0639   31.6249    4.0285 O.2       7 UNK        -0.5193 
     49 N          30.2409   31.7484    6.2894 N.am      8 UNK        -0.4253 
     50 CA         31.1911   30.6424    6.4859 C.3       8 UNK         0.0242 
     51 CB         31.4644   30.4646    7.9879 C.3       8 UNK        -0.2000 
     52 C          32.5151   30.7945    5.7134 C.2       8 UNK         0.4948 
     53 O          33.1359   29.7874    5.3737 O.2       8 UNK        -0.5275 
     54 N          32.8924   32.0429    5.3998 N.am      9 UNK        -0.4246 
     55 CA         34.0266   32.4069    4.5475 C.3       9 UNK         0.0261 
     56 CB         34.1464   33.9386    4.4975 C.3       9 UNK        -0.1959 
     57 C          33.9583   31.8282    3.1207 C.2       9 UNK         0.5033 
     58 O          35.0107   31.6510    2.5051 O.2       9 UNK        -0.5390 
     59 N          32.7508   31.5029    2.6278 N.am      10 UNK        -0.4215 
     60 CA         32.5332   30.8406    1.3366 C.3       10 UNK         0.0240 
     61 CB         31.0268   30.7906    1.0317 C.3       10 UNK        -0.1982 
     62 C          33.1488   29.4298    1.2550 C.2       10 UNK         0.4970 
     63 O          33.4770   28.9878    0.1538 O.2       10 UNK        -0.4916 
     64 N          33.3152   28.7656    2.4069 N.am      11 UNK        -0.4279 
     65 CA         34.0143   27.4788    2.5394 C.3       11 UNK         0.1003 
     66 C          35.5663   27.6073    2.5746 C.2       11 UNK         0.5709 
     67 N          36.1501   28.8014    2.5574 N.am      11 UNK        -0.7358 
     68 O          36.2624   26.5951    2.6025 O.2       11 UNK        -0.4999 
     69 C69        33.4818   26.6666    3.7495 C.3       12 UNK        -0.0954 
     70 S70        31.7179   26.2595    3.5584 S.3       12 UNK        -0.2268 
     71 C71        31.4913   25.0050    4.8585 C.3       12 UNK         0.0203 
     72 H72        34.0985   21.9828    1.9689 H         1 UNK         0.0888 
     73 H73        34.4286   23.2382    0.7707 H         1 UNK         0.0888 
     74 H74        34.0030   23.6855    2.4242 H         1 UNK         0.0888 
     75 H75        32.0685   21.0680    1.7035 H         1 UNK         0.3017 
     76 H76        29.7176   22.5515    1.8110 H         1 UNK         0.0873 
     77 H77        29.9000   19.6256    0.9513 H         1 UNK         0.0745 
     78 H78        28.5330   20.4130    1.6945 H         1 UNK         0.0745 
     79 H79        28.0312   20.2015    4.1618 H         1 UNK         0.0705 
     80 H80        29.2195   20.2315    5.4411 H         1 UNK         0.0705 
     81 H81        31.1233   22.3004    4.7827 H         1 UNK         0.1334 
     82 H82        28.9625   25.9962    4.5599 H         1 UNK         0.1417 
     83 H83        26.8798   22.2748    4.1436 H         1 UNK         0.1562 
     84 H84        26.5188   25.8857    4.7804 H         1 UNK         0.0748 
     85 H85        25.6397   24.3933    4.5546 H         1 UNK         0.0748 
     86 H86        24.8063   26.9890    3.6031 H         1 UNK         0.0940 
     87 H87        24.4050   26.9396    1.9127 H         1 UNK         0.0940 
     88 H88        27.0333   28.0813    2.9855 H         1 UNK         0.0703 
     89 H89        27.6656   28.1342    0.8676 H         1 UNK         0.3081 
     90 H90        26.1541   27.9595   -2.2070 H         1 UNK         0.0719 
     91 H91        27.3178   30.6508   -1.2976 H         1 UNK         0.0809 
     92 H92        27.2057   30.0810   -2.9642 H         1 UNK         0.0809 
     93 H93        25.7472   30.4221   -2.0519 H         1 UNK         0.0809 
     94 H94        28.8253   28.7055   -1.5804 H         1 UNK         0.2990 
     95 H95        30.3901   27.0003   -2.1083 H         1 UNK         0.0690 
     96 H96        31.6349   26.7443    0.0447 H         1 UNK         0.0788 
     97 H97        30.1379   26.3587    0.8863 H         1 UNK         0.0788 
     98 H98        30.3897   27.9643    0.2163 H         1 UNK         0.0788 
     99 H99        30.6788   24.5583   -0.6936 H         1 UNK         0.2993 
    100 H100       29.3962   22.2733   -2.9484 H         1 UNK         0.0949 
    101 H101       31.6639   21.3999   -3.5118 H         1 UNK         0.0767 
    102 H102       31.2871   22.8077   -4.4899 H         1 UNK         0.0767 
    103 H103       32.3832   22.9641   -3.1240 H         1 UNK         0.0767 
    104 H104       31.5260   22.1866   -0.9592 H         1 UNK         0.3013 
    105 H105       27.0629   30.5205    1.9496 H         1 UNK         0.3121 
    106 H106       24.8381   32.0687    3.1843 H         1 UNK         0.0774 
    107 H107       25.9663   34.0061    2.0646 H         1 UNK         0.0815 
    108 H108       27.1867   32.9240    1.3897 H         1 UNK         0.0815 
    109 H109       25.5033   32.7734    0.9094 H         1 UNK         0.0815 
    110 H110       27.9103   33.5632    3.1932 H         1 UNK         0.2987 
    111 H111       28.2635   33.3616    6.0946 H         1 UNK         0.0949 
    112 H112       30.0192   34.6187    3.9030 H         1 UNK         0.0806 
    113 H113       28.8153   35.4770    4.8643 H         1 UNK         0.0806 
    114 H114       30.2447   34.8131    5.6358 H         1 UNK         0.0806 
    115 H115       29.9309   32.2261    7.1239 H         1 UNK         0.3010 
    116 H116       30.7116   29.7336    6.1156 H         1 UNK         0.0829 
    117 H117       30.5476   30.2471    8.5364 H         1 UNK         0.0813 
    118 H118       32.1485   29.6329    8.1640 H         1 UNK         0.0813 
    119 H119       31.9162   31.3559    8.4253 H         1 UNK         0.0813 
    120 H120       32.3169   32.8025    5.7318 H         1 UNK         0.3038 
    121 H121       34.9279   32.0053    5.0153 H         1 UNK         0.0769 
    122 H122       33.2573   34.3996    4.0648 H         1 UNK         0.0811 
    123 H123       34.9997   34.2436    3.8899 H         1 UNK         0.0811 
    124 H124       34.2943   34.3593    5.4924 H         1 UNK         0.0811 
    125 H125       31.9245   31.6534    3.2001 H         1 UNK         0.3204 
    126 H126       33.0156   31.4513    0.5706 H         1 UNK         0.0748 
    127 H127       30.8450   30.3917    0.0331 H         1 UNK         0.0771 
    128 H128       30.4935   30.1573    1.7421 H         1 UNK         0.0771 
    129 H129       30.5797   31.7843    1.0687 H         1 UNK         0.0771 
    130 H130       33.0462   29.2045    3.2792 H         1 UNK         0.2980 
    131 H131       33.7997   26.8904    1.6449 H         1 UNK         0.0545 
    132 H132       37.1561   28.8519    2.5743 H         1 UNK         0.3459 
    133 H133       35.6068   29.6552    2.5167 H         1 UNK         0.3459 
    134 H134       33.6218   27.2160    4.6816 H         1 UNK         0.0616 
    135 H135       34.0329   25.7308    3.8550 H         1 UNK         0.0616 
    136 H136       32.3404   24.3200    4.8419 H         1 UNK         0.0634 
    137 H137       31.4963   25.4925    5.8342 H         1 UNK         0.0634 
@<TRIPOS>BOND
     1    1    2 1    
     2    1   72 1    
     3    1   73 1    
     4    1   74 1    
     5    2    3 2    
     6    2    4 am   BACKBONE|DICT|INTERRES
     7    4    5 1    
     8    4   75 1    
     9    5    6 1    
    10    5   35 1    
    11    5   76 1    
    12    6    7 1    
    13    6   77 1    
    14    6   78 1    
    15    7    8 1    
    16    8    9 1    
    17    8   79 1    
    18    8   80 1    
    19    9   10 ar   
    20    9   14 ar   
    21   10   11 ar   
    22   10   81 1    
    23   11   12 ar   
    24   11   71 1    
    25   12   13 ar   
    26   12   82 1    
    27   13   14 ar   
    28   13   15 1    
    29   14   83 1    
    30   15   16 1    
    31   15   84 1    
    32   15   85 1    
    33   16   17 1    
    34   17   18 1    
    35   17   86 1    
    36   17   87 1    
    37   18   19 1    
    38   18   37 1    
    39   18   88 1    
    40   19   20 am   BACKBONE|DICT|INTERRES
    41   19   89 1    
    42   20   21 2    
    43   20   22 1    
    44   22   23 1    
    45   22   24 1    
    46   22   90 1    
    47   23   91 1    
    48   23   92 1    
    49   23   93 1    
    50   24   25 am   BACKBONE|DICT|INTERRES
    51   24   94 1    
    52   25   26 2    
    53   25   27 1    
    54   27   28 1    
    55   27   29 1    
    56   27   95 1    
    57   28   96 1    
    58   28   97 1    
    59   28   98 1    
    60   29   30 am   BACKBONE|DICT|INTERRES
    61   29   99 1    
    62   30   31 2    
    63   30   32 1    
    64   32   33 1    
    65   32   34 1    
    66   32  100 1    
    67   33  101 1    
    68   33  102 1    
    69   33  103 1    
    70   34   35 am   BACKBONE|DICT|INTERRES
    71   34  104 1    
    72   35   36 2    
    73   37   38 2    
    74   37   39 am   BACKBONE|DICT|INTERRES
    75   39   40 1    
    76   39  105 1    
    77   40   41 1    
    78   40   42 1    
    79   40  106 1    
    80   41  107 1    
    81   41  108 1    
    82   41  109 1    
    83   42   43 2    
    84   42   44 am   BACKBONE|DICT|INTERRES
    85   44   45 1    
    86   44  110 1    
    87   45   46 1    
    88   45   47 1    
    89   45  111 1    
    90   46  112 1    
    91   46  113 1    
    92   46  114 1    
    93   47   48 2    
    94   47   49 am   BACKBONE|DICT|INTERRES
    95   49   50 1    
    96   49  115 1    
    97   50   51 1    
    98   50   52 1    
    99   50  116 1    
   100   51  117 1    
   101   51  118 1    
   102   51  119 1    
   103   52   53 2    
   104   52   54 am   BACKBONE|DICT|INTERRES
   105   54   55 1    
   106   54  120 1    
   107   55   56 1    
   108   55   57 1    
   109   55  121 1    
   110   56  122 1    
   111   56  123 1    
   112   56  124 1    
   113   57   58 2    
   114   57   59 am   BACKBONE|DICT|INTERRES
   115   59   60 1    
   116   59  125 1    
   117   60   61 1    
   118   60   62 1    
   119   60  126 1    
   120   61  127 1    
   121   61  128 1    
   122   61  129 1    
   123   62   63 2    
   124   62   64 am   BACKBONE|DICT|INTERRES
   125   64   65 1    
   126   64  130 1    
   127   65   66 1    
   128   65   69 1    
   129   65  131 1    
   130   66   67 am   BACKBONE|DICT|INTERRES
   131   66   68 2    
   132   67  132 1    
   133   67  133 1    
   134   69   70 1    
   135   69  134 1    
   136   69  135 1    
   137   70   71 1    
   138   71  136 1    
   139   71  137 1    
@<TRIPOS>SUBSTRUCTURE
     1 UNK         1 GROUP             0       ****    0 ROOT    
