@<TRIPOS>MOLECULE
3R136
137   139    1
SMALL
USER_CHARGES


@<TRIPOS>ATOM
      1 CA         25.1634   26.3037    2.9666 C.3       0 UNK        -0.1979 
      2 C          25.5950   24.9138    2.5236 C.2       0 UNK         0.4864 
      3 O          24.7763   24.1620    1.9922 O.2       0 UNK        -0.5359 
      4 N          26.8725   24.5708    2.7454 N.am      1 UNK        -0.4318 
      5 CA         27.5107   23.2810    2.4501 C.3       1 UNK         0.0824 
      6 C6         29.0110   23.2637    2.8470 C.3       12 UNK        -0.0944 
      7 S7         29.3341   23.6766    4.5984 S.3       12 UNK        -0.2672 
      8 C8         29.4825   25.4975    4.6128 C.3       12 UNK         0.0333 
      9 C9         30.6738   26.0224    3.8227 C.ar      12 UNK        -0.0807 
     10 C10        31.8936   26.2543    4.4637 C.ar      12 UNK        -0.0894 
     11 C11        32.9625   26.8286    3.7696 C.ar      12 UNK        -0.0804 
     12 C12        32.8195   27.1346    2.4120 C.ar      12 UNK        -0.0824 
     13 C13        31.6125   26.8840    1.7532 C.ar      12 UNK        -0.0762 
     14 C14        30.5408   26.3420    2.4681 C.ar      12 UNK        -0.0782 
     15 C15        31.4706   27.1741    0.2647 C.3       12 UNK         0.0230 
     16 S16        31.1166   28.9258   -0.0941 S.3       12 UNK        -0.2608 
     17 C17        29.4350   29.1414    0.5812 C.3       12 UNK        -0.0989 
     18 CA         28.2909   28.9820   -0.4539 C.3       5 UNK         0.0716 
     19 N          28.2396   27.6508   -1.0502 N.am      5 UNK        -0.4135 
     20 C          28.5822   27.3260   -2.3002 C.2       4 UNK         0.5031 
     21 O          29.1332   28.0937   -3.0903 O.2       4 UNK        -0.5229 
     22 CA         28.2275   25.9006   -2.7579 C.3       4 UNK         0.0329 
     23 CB         29.4198   24.9507   -2.5605 C.3       4 UNK        -0.2001 
     24 N          27.0494   25.3552   -2.0736 N.am      4 UNK        -0.4303 
     25 C          25.7839   25.7249   -2.3339 C.2       3 UNK         0.5044 
     26 O          25.4958   26.5843   -3.1689 O.2       3 UNK        -0.5152 
     27 CA         24.6480   25.0414   -1.5361 C.3       3 UNK         0.0319 
     28 CB         23.3493   24.9005   -2.3579 C.3       3 UNK        -0.2001 
     29 N          25.0223   23.7568   -0.9317 N.am      3 UNK        -0.4354 
     30 C          25.4650   22.6525   -1.5574 C.2       2 UNK         0.4964 
     31 O          25.4793   22.5222   -2.7824 O.2       2 UNK        -0.5047 
     32 CA         26.0264   21.5182   -0.6677 C.3       2 UNK         0.0288 
     33 CB         27.1689   20.7471   -1.3637 C.3       2 UNK        -0.2113 
     34 N          26.4562   21.9564    0.6707 N.am      2 UNK        -0.4145 
     35 C          27.3476   22.9184    0.9610 C.2       1 UNK         0.5006 
     36 O          27.9671   23.5655    0.1131 O.2       1 UNK        -0.5103 
     37 C          26.9301   29.1843    0.2340 C.2       5 UNK         0.5055 
     38 O          26.3023   28.1985    0.6323 O.2       5 UNK        -0.5220 
     39 N          26.5076   30.4454    0.3922 N.am      6 UNK        -0.4450 
     40 CA         25.2699   30.8121    1.0939 C.3       6 UNK         0.0367 
     41 CB         24.8802   32.2501    0.7142 C.3       6 UNK        -0.1929 
     42 C          25.3706   30.6717    2.6259 C.2       6 UNK         0.5070 
     43 O          24.3463   30.5051    3.2883 O.2       6 UNK        -0.5237 
     44 N          26.5942   30.7450    3.1572 N.am      7 UNK        -0.4739 
     45 CA         26.9546   30.5930    4.5631 C.3       7 UNK         0.0276 
     46 CB         26.7417   31.9258    5.3051 C.3       7 UNK        -0.1927 
     47 C          28.4216   30.1465    4.6187 C.2       7 UNK         0.5013 
     48 O          29.1088   30.2041    3.5956 O.2       7 UNK        -0.5193 
     49 N          28.8811   29.7062    5.7968 N.am      8 UNK        -0.4253 
     50 CA         30.2560   29.2511    6.0156 C.3       8 UNK         0.0242 
     51 CB         30.3739   28.5952    7.4011 C.3       8 UNK        -0.2000 
     52 C          31.2769   30.3915    5.8503 C.2       8 UNK         0.4948 
     53 O          31.1977   31.3898    6.5703 O.2       8 UNK        -0.5275 
     54 N          32.2033   30.2131    4.9032 N.am      9 UNK        -0.4246 
     55 CA         33.3030   31.1314    4.6047 C.3       9 UNK         0.0261 
     56 CB         33.5775   31.0631    3.0888 C.3       9 UNK        -0.1959 
     57 C          34.5595   30.7741    5.4225 C.2       9 UNK         0.5033 
     58 O          34.5323   29.8488    6.2378 O.2       9 UNK        -0.5390 
     59 N          35.6679   31.4737    5.1539 N.am      10 UNK        -0.4215 
     60 CA         36.9987   31.1631    5.6838 C.3       10 UNK         0.0240 
     61 CB         37.7623   32.4811    5.9180 C.3       10 UNK        -0.1982 
     62 C          37.7431   30.2033    4.7328 C.2       10 UNK         0.4970 
     63 O          38.7963   30.5602    4.2017 O.2       10 UNK        -0.4916 
     64 N          37.1663   29.0150    4.5051 N.am      11 UNK        -0.4279 
     65 CA         37.7122   27.9741    3.6133 C.3       11 UNK         0.1003 
     66 C          38.8618   27.1194    4.2253 C.2       11 UNK         0.5709 
     67 N          39.1795   27.2495    5.5083 N.am      11 UNK        -0.7358 
     68 O          39.4903   26.3368    3.5163 O.2       11 UNK        -0.4999 
     69 C69        36.5929   27.1094    2.9649 C.3       12 UNK        -0.0954 
     70 S70        35.6342   26.0870    4.1395 S.3       12 UNK        -0.2268 
     71 C71        34.2383   27.1869    4.5131 C.3       12 UNK         0.0203 
     72 H72        24.5777   26.7824    2.1821 H         1 UNK         0.0888 
     73 H73        24.5439   26.2381    3.8604 H         1 UNK         0.0888 
     74 H74        26.0161   26.9466    3.1850 H         1 UNK         0.0888 
     75 H75        27.4790   25.2427    3.1865 H         1 UNK         0.3017 
     76 H76        26.9973   22.5269    3.0502 H         1 UNK         0.0873 
     77 H77        29.4115   22.2607    2.6878 H         1 UNK         0.0745 
     78 H78        29.6046   23.9046    2.1984 H         1 UNK         0.0745 
     79 H79        29.5734   25.8152    5.6528 H         1 UNK         0.0705 
     80 H80        28.5650   25.9623    4.2555 H         1 UNK         0.0705 
     81 H81        31.9961   26.0251    5.5159 H         1 UNK         0.1334 
     82 H82        33.6420   27.5751    1.8665 H         1 UNK         0.1417 
     83 H83        29.5997   26.1706    1.9644 H         1 UNK         0.1562 
     84 H84        30.6901   26.5503   -0.1697 H         1 UNK         0.0748 
     85 H85        32.3933   26.8952   -0.2462 H         1 UNK         0.0748 
     86 H86        29.4083   30.1499    0.9968 H         1 UNK         0.0940 
     87 H87        29.2880   28.4775    1.4320 H         1 UNK         0.0940 
     88 H88        28.3968   29.7373   -1.2356 H         1 UNK         0.0703 
     89 H89        27.7035   26.9844   -0.5103 H         1 UNK         0.3081 
     90 H90        28.0093   25.9458   -3.8272 H         1 UNK         0.0719 
     91 H91        30.3051   25.3211   -3.0791 H         1 UNK         0.0809 
     92 H92        29.6804   24.8391   -1.5080 H         1 UNK         0.0809 
     93 H93        29.2031   23.9579   -2.9554 H         1 UNK         0.0809 
     94 H94        27.2241   24.6480   -1.3645 H         1 UNK         0.2990 
     95 H95        24.4359   25.7090   -0.6995 H         1 UNK         0.0690 
     96 H96        22.5579   24.4338   -1.7715 H         1 UNK         0.0788 
     97 H97        23.5011   24.3005   -3.2556 H         1 UNK         0.0788 
     98 H98        22.9794   25.8753   -2.6782 H         1 UNK         0.0788 
     99 H99        25.0210   23.7525    0.0857 H         1 UNK         0.2993 
    100 H100       25.1996   20.8231   -0.5139 H         1 UNK         0.0949 
    101 H101       28.0061   21.4018   -1.6089 H         1 UNK         0.0767 
    102 H102       27.5462   19.9421   -0.7330 H         1 UNK         0.0767 
    103 H103       26.8280   20.2923   -2.2947 H         1 UNK         0.0767 
    104 H104       25.9558   21.5326    1.4405 H         1 UNK         0.3013 
    105 H105       27.0718   31.2048    0.0371 H         1 UNK         0.3121 
    106 H106       24.4730   30.1446    0.7578 H         1 UNK         0.0774 
    107 H107       25.6414   32.9696    1.0185 H         1 UNK         0.0815 
    108 H108       24.7306   32.3510   -0.3609 H         1 UNK         0.0815 
    109 H109       23.9465   32.5409    1.1977 H         1 UNK         0.0815 
    110 H110       27.3977   30.8235    2.5459 H         1 UNK         0.2987 
    111 H111       26.3377   29.8113    5.0121 H         1 UNK         0.0949 
    112 H112       25.7011   32.2467    5.2548 H         1 UNK         0.0806 
    113 H113       26.9994   31.8369    6.3610 H         1 UNK         0.0806 
    114 H114       27.3574   32.7218    4.8842 H         1 UNK         0.0806 
    115 H115       28.2728   29.7231    6.6024 H         1 UNK         0.3010 
    116 H116       30.4637   28.4879    5.2652 H         1 UNK         0.0829 
    117 H117       30.1428   29.2989    8.2018 H         1 UNK         0.0813 
    118 H118       31.3877   28.2298    7.5715 H         1 UNK         0.0813 
    119 H119       29.7021   27.7422    7.4973 H         1 UNK         0.0813 
    120 H120       32.1887   29.3526    4.3751 H         1 UNK         0.3038 
    121 H121       33.0089   32.1510    4.8629 H         1 UNK         0.0769 
    122 H122       32.6656   31.2340    2.5154 H         1 UNK         0.0811 
    123 H123       33.9771   30.0939    2.7886 H         1 UNK         0.0811 
    124 H124       34.2931   31.8231    2.7742 H         1 UNK         0.0811 
    125 H125       35.6254   32.2017    4.4546 H         1 UNK         0.3204 
    126 H126       36.9101   30.6603    6.6494 H         1 UNK         0.0748 
    127 H127       37.8995   33.0421    4.9926 H         1 UNK         0.0771 
    128 H128       37.2347   33.1233    6.6234 H         1 UNK         0.0771 
    129 H129       38.7523   32.2907    6.3348 H         1 UNK         0.0771 
    130 H130       36.3208   28.7810    5.0061 H         1 UNK         0.2980 
    131 H131       38.1864   28.4984    2.7814 H         1 UNK         0.0545 
    132 H132       39.9303   26.6952    5.8886 H         1 UNK         0.3459 
    133 H133       38.6726   27.8870    6.1000 H         1 UNK         0.3459 
    134 H134       37.0256   26.4378    2.2214 H         1 UNK         0.0616 
    135 H135       35.9141   27.7519    2.4037 H         1 UNK         0.0616 
    136 H136       34.5063   28.2070    4.2535 H         1 UNK         0.0634 
    137 H137       34.0689   27.1787    5.5910 H         1 UNK         0.0634 
@<TRIPOS>BOND
     1    1    2 1    
     2    1   72 1    
     3    1   73 1    
     4    1   74 1    
     5    2    3 2    
     6    2    4 am   BACKBONE|DICT|INTERRES
     7    4    5 1    
     8    4   75 1    
     9    5    6 1    
    10    5   35 1    
    11    5   76 1    
    12    6    7 1    
    13    6   77 1    
    14    6   78 1    
    15    7    8 1    
    16    8    9 1    
    17    8   79 1    
    18    8   80 1    
    19    9   10 ar   
    20    9   14 ar   
    21   10   11 ar   
    22   10   81 1    
    23   11   12 ar   
    24   11   71 1    
    25   12   13 ar   
    26   12   82 1    
    27   13   14 ar   
    28   13   15 1    
    29   14   83 1    
    30   15   16 1    
    31   15   84 1    
    32   15   85 1    
    33   16   17 1    
    34   17   18 1    
    35   17   86 1    
    36   17   87 1    
    37   18   19 1    
    38   18   37 1    
    39   18   88 1    
    40   19   20 am   BACKBONE|DICT|INTERRES
    41   19   89 1    
    42   20   21 2    
    43   20   22 1    
    44   22   23 1    
    45   22   24 1    
    46   22   90 1    
    47   23   91 1    
    48   23   92 1    
    49   23   93 1    
    50   24   25 am   BACKBONE|DICT|INTERRES
    51   24   94 1    
    52   25   26 2    
    53   25   27 1    
    54   27   28 1    
    55   27   29 1    
    56   27   95 1    
    57   28   96 1    
    58   28   97 1    
    59   28   98 1    
    60   29   30 am   BACKBONE|DICT|INTERRES
    61   29   99 1    
    62   30   31 2    
    63   30   32 1    
    64   32   33 1    
    65   32   34 1    
    66   32  100 1    
    67   33  101 1    
    68   33  102 1    
    69   33  103 1    
    70   34   35 am   BACKBONE|DICT|INTERRES
    71   34  104 1    
    72   35   36 2    
    73   37   38 2    
    74   37   39 am   BACKBONE|DICT|INTERRES
    75   39   40 1    
    76   39  105 1    
    77   40   41 1    
    78   40   42 1    
    79   40  106 1    
    80   41  107 1    
    81   41  108 1    
    82   41  109 1    
    83   42   43 2    
    84   42   44 am   BACKBONE|DICT|INTERRES
    85   44   45 1    
    86   44  110 1    
    87   45   46 1    
    88   45   47 1    
    89   45  111 1    
    90   46  112 1    
    91   46  113 1    
    92   46  114 1    
    93   47   48 2    
    94   47   49 am   BACKBONE|DICT|INTERRES
    95   49   50 1    
    96   49  115 1    
    97   50   51 1    
    98   50   52 1    
    99   50  116 1    
   100   51  117 1    
   101   51  118 1    
   102   51  119 1    
   103   52   53 2    
   104   52   54 am   BACKBONE|DICT|INTERRES
   105   54   55 1    
   106   54  120 1    
   107   55   56 1    
   108   55   57 1    
   109   55  121 1    
   110   56  122 1    
   111   56  123 1    
   112   56  124 1    
   113   57   58 2    
   114   57   59 am   BACKBONE|DICT|INTERRES
   115   59   60 1    
   116   59  125 1    
   117   60   61 1    
   118   60   62 1    
   119   60  126 1    
   120   61  127 1    
   121   61  128 1    
   122   61  129 1    
   123   62   63 2    
   124   62   64 am   BACKBONE|DICT|INTERRES
   125   64   65 1    
   126   64  130 1    
   127   65   66 1    
   128   65   69 1    
   129   65  131 1    
   130   66   67 am   BACKBONE|DICT|INTERRES
   131   66   68 2    
   132   67  132 1    
   133   67  133 1    
   134   69   70 1    
   135   69  134 1    
   136   69  135 1    
   137   70   71 1    
   138   71  136 1    
   139   71  137 1    
@<TRIPOS>SUBSTRUCTURE
     1 UNK         1 GROUP             0       ****    0 ROOT    
