@<TRIPOS>MOLECULE
3R136
137   139    1
SMALL
USER_CHARGES


@<TRIPOS>ATOM
      1 CA         28.3359   19.6479   -2.7748 C.3       0 UNK        -0.1979 
      2 C          28.8166   20.4488   -1.5733 C.2       0 UNK         0.4864 
      3 O          28.0233   21.1705   -0.9685 O.2       0 UNK        -0.5359 
      4 N          30.1046   20.3166   -1.2263 N.am      1 UNK        -0.4318 
      5 CA         30.7926   21.0324   -0.1456 C.3       1 UNK         0.0824 
      6 C6         30.2122   20.7128    1.2639 C.3       12 UNK        -0.0944 
      7 S7         31.4640   20.8938    2.5770 S.3       12 UNK        -0.2672 
      8 C8         30.4311   20.8087    4.0695 C.3       12 UNK         0.0333 
      9 C9         29.7684   22.1401    4.3979 C.ar      12 UNK        -0.0807 
     10 C10        30.5176   23.1690    4.9757 C.ar      12 UNK        -0.0894 
     11 C11        29.9038   24.3602    5.3763 C.ar      12 UNK        -0.0804 
     12 C12        28.5277   24.5229    5.1846 C.ar      12 UNK        -0.0824 
     13 C13        27.7687   23.5048    4.5961 C.ar      12 UNK        -0.0762 
     14 C14        28.3970   22.3204    4.1960 C.ar      12 UNK        -0.0782 
     15 C15        26.2594   23.6452    4.4519 C.3       12 UNK         0.0230 
     16 S16        25.7804   24.4171    2.8750 S.3       12 UNK        -0.2608 
     17 C17        25.9023   26.1959    3.2694 C.3       12 UNK        -0.0989 
     18 CA         26.9263   26.9366    2.3679 C.3       5 UNK         0.0716 
     19 N          26.6177   26.8268    0.9357 N.am      5 UNK        -0.4135 
     20 C          25.5992   27.4114    0.2834 C.2       4 UNK         0.5031 
     21 O          24.6871   28.0180    0.8483 O.2       4 UNK        -0.5229 
     22 CA         25.6136   27.3460   -1.2618 C.3       4 UNK         0.0329 
     23 CB         25.0495   28.6351   -1.8966 C.3       4 UNK        -0.2001 
     24 N          26.9253   27.0304   -1.8483 N.am      4 UNK        -0.4303 
     25 C          28.0813   27.6870   -1.6647 C.2       3 UNK         0.5044 
     26 O          28.2081   28.6915   -0.9629 O.2       3 UNK        -0.5152 
     27 CA         29.3270   27.0487   -2.2997 C.3       3 UNK         0.0319 
     28 CB         30.1651   28.1010   -3.0459 C.3       3 UNK        -0.2001 
     29 N          30.1760   26.3751   -1.3104 N.am      3 UNK        -0.4354 
     30 C          29.7877   25.4386   -0.4316 C.2       2 UNK         0.4964 
     31 O          28.6257   25.0501   -0.2931 O.2       2 UNK        -0.5047 
     32 CA         30.8846   24.8547    0.4723 C.3       2 UNK         0.0288 
     33 CB         30.7617   25.4211    1.8934 C.3       2 UNK        -0.2113 
     34 N          30.8162   23.3969    0.5543 N.am      2 UNK        -0.4145 
     35 C          30.9311   22.5397   -0.4689 C.2       1 UNK         0.5006 
     36 O          31.1807   22.8890   -1.6264 O.2       1 UNK        -0.5103 
     37 C          27.1539   28.4052    2.8115 C.2       5 UNK         0.5055 
     38 O          26.8649   28.7470    3.9611 O.2       5 UNK        -0.5220 
     39 N          27.6494   29.2629    1.9028 N.am      6 UNK        -0.4450 
     40 CA         27.8554   30.6961    2.1219 C.3       6 UNK         0.0367 
     41 CB         27.9187   31.4120    0.7603 C.3       6 UNK        -0.1929 
     42 C          29.1066   30.9630    2.9735 C.2       6 UNK         0.5070 
     43 O          30.1107   31.4567    2.4588 O.2       6 UNK        -0.5237 
     44 N          29.0232   30.6383    4.2689 N.am      7 UNK        -0.4739 
     45 CA         30.1016   30.6970    5.2658 C.3       7 UNK         0.0276 
     46 CB         29.5800   30.1131    6.5893 C.3       7 UNK        -0.1927 
     47 C          30.7513   32.0788    5.4945 C.2       7 UNK         0.5013 
     48 O          31.7770   32.1560    6.1711 O.2       7 UNK        -0.5193 
     49 N          30.1625   33.1426    4.9331 N.am      8 UNK        -0.4253 
     50 CA         30.7571   34.4775    4.8516 C.3       8 UNK         0.0242 
     51 CB         29.6552   35.4965    4.5182 C.3       8 UNK        -0.2000 
     52 C          31.9009   34.5677    3.8202 C.2       8 UNK         0.4948 
     53 O          32.7486   35.4513    3.9556 O.2       8 UNK        -0.5275 
     54 N          31.9008   33.6820    2.8130 N.am      9 UNK        -0.4246 
     55 CA         32.8927   33.6270    1.7349 C.3       9 UNK         0.0261 
     56 CB         32.2180   34.0036    0.4048 C.3       9 UNK        -0.1959 
     57 C          33.5486   32.2412    1.6335 C.2       9 UNK         0.5033 
     58 O          34.7642   32.1637    1.4465 O.2       9 UNK        -0.5390 
     59 N          32.7439   31.1788    1.7554 N.am      10 UNK        -0.4215 
     60 CA         33.1714   29.7811    1.7975 C.3       10 UNK         0.0240 
     61 CB         32.0866   28.9279    1.1101 C.3       10 UNK        -0.1982 
     62 C          33.4219   29.3412    3.2539 C.2       10 UNK         0.4970 
     63 O          33.4701   30.1835    4.1517 O.2       10 UNK        -0.4916 
     64 N          33.5802   28.0269    3.4637 N.am      11 UNK        -0.4279 
     65 CA         33.7661   27.3782    4.7784 C.3       11 UNK         0.1003 
     66 C          35.1234   27.6962    5.4803 C.2       11 UNK         0.5709 
     67 N          36.1204   28.2289    4.7835 N.am      11 UNK        -0.7358 
     68 O          35.2956   27.4199    6.6655 O.2       11 UNK        -0.4999 
     69 C69        32.5405   27.5567    5.7265 C.3       12 UNK        -0.0954 
     70 S70        31.0023   26.8865    5.0051 S.3       12 UNK        -0.2268 
     71 C71        30.7223   25.4394    6.0710 C.3       12 UNK         0.0203 
     72 H72        27.9623   20.3194   -3.5474 H         1 UNK         0.0888 
     73 H73        29.1323   19.0428   -3.2079 H         1 UNK         0.0888 
     74 H74        27.5255   18.9812   -2.4813 H         1 UNK         0.0888 
     75 H75        30.7010   19.7267   -1.7900 H         1 UNK         0.3017 
     76 H76        31.8120   20.6442   -0.1761 H         1 UNK         0.0873 
     77 H77        29.8726   19.6762    1.2966 H         1 UNK         0.0745 
     78 H78        29.3305   21.3178    1.4846 H         1 UNK         0.0745 
     79 H79        31.0606   20.5102    4.9092 H         1 UNK         0.0705 
     80 H80        29.6878   20.0178    3.9560 H         1 UNK         0.0705 
     81 H81        31.5772   23.0268    5.1399 H         1 UNK         0.1334 
     82 H82        28.0493   25.4352    5.5130 H         1 UNK         0.1417 
     83 H83        27.8092   21.5240    3.7597 H         1 UNK         0.1562 
     84 H84        25.8448   24.2074    5.2899 H         1 UNK         0.0748 
     85 H85        25.7948   22.6593    4.5033 H         1 UNK         0.0748 
     86 H86        26.1669   26.3090    4.3214 H         1 UNK         0.0940 
     87 H87        24.9106   26.6395    3.1671 H         1 UNK         0.0940 
     88 H88        27.8915   26.4469    2.5016 H         1 UNK         0.0703 
     89 H89        27.2883   26.2913    0.3905 H         1 UNK         0.3081 
     90 H90        24.9515   26.5225   -1.5329 H         1 UNK         0.0719 
     91 H91        25.6317   29.5121   -1.6112 H         1 UNK         0.0809 
     92 H92        25.0466   28.5739   -2.9848 H         1 UNK         0.0809 
     93 H93        24.0200   28.8121   -1.5827 H         1 UNK         0.0809 
     94 H94        26.9568   26.1761   -2.3882 H         1 UNK         0.2990 
     95 H95        29.0063   26.2974   -3.0242 H         1 UNK         0.0690 
     96 H96        31.0018   27.6432   -3.5739 H         1 UNK         0.0788 
     97 H97        30.5675   28.8537   -2.3662 H         1 UNK         0.0788 
     98 H98        29.5619   28.6242   -3.7891 H         1 UNK         0.0788 
     99 H99        31.1500   26.6393   -1.3247 H         1 UNK         0.2993 
    100 H100       31.8623   25.1225    0.0668 H         1 UNK         0.0949 
    101 H101       29.8666   25.0513    2.3954 H         1 UNK         0.0767 
    102 H102       31.6205   25.1448    2.5055 H         1 UNK         0.0767 
    103 H103       30.6988   26.5085    1.8892 H         1 UNK         0.0767 
    104 H104       30.6272   23.0085    1.4682 H         1 UNK         0.3013 
    105 H105       27.8662   28.9246    0.9685 H         1 UNK         0.3121 
    106 H106       26.9942   31.0940    2.6630 H         1 UNK         0.0774 
    107 H107       28.0217   32.4900    0.8900 H         1 UNK         0.0815 
    108 H108       28.7679   31.0742    0.1646 H         1 UNK         0.0815 
    109 H109       27.0137   31.2387    0.1779 H         1 UNK         0.0815 
    110 H110       28.1669   30.1768    4.5613 H         1 UNK         0.2987 
    111 H111       30.8948   30.0466    4.8969 H         1 UNK         0.0949 
    112 H112       29.2180   29.0931    6.4574 H         1 UNK         0.0806 
    113 H113       30.3700   30.0770    7.3408 H         1 UNK         0.0806 
    114 H114       28.7646   30.7104    6.9985 H         1 UNK         0.0806 
    115 H115       29.3130   32.9857    4.4112 H         1 UNK         0.3010 
    116 H116       31.1738   34.7305    5.8291 H         1 UNK         0.0829 
    117 H117       28.8689   35.4930    5.2733 H         1 UNK         0.0813 
    118 H118       30.0600   36.5089    4.4793 H         1 UNK         0.0813 
    119 H119       29.1949   35.2928    3.5505 H         1 UNK         0.0813 
    120 H120       31.1757   32.9698    2.7948 H         1 UNK         0.3038 
    121 H121       33.6943   34.3445    1.9220 H         1 UNK         0.0769 
    122 H122       32.9290   33.9583   -0.4212 H         1 UNK         0.0811 
    123 H123       31.8229   35.0190    0.4372 H         1 UNK         0.0811 
    124 H124       31.3928   33.3314    0.1651 H         1 UNK         0.0811 
    125 H125       31.7547   31.3308    1.9514 H         1 UNK         0.3204 
    126 H126       34.1064   29.6677    1.2454 H         1 UNK         0.0748 
    127 H127       32.4260   27.9045    0.9527 H         1 UNK         0.0771 
    128 H128       31.1694   28.8910    1.6998 H         1 UNK         0.0771 
    129 H129       31.8298   29.3284    0.1289 H         1 UNK         0.0771 
    130 H130       33.5549   27.4010    2.6733 H         1 UNK         0.2980 
    131 H131       33.8350   26.3127    4.5568 H         1 UNK         0.0545 
    132 H132       36.9969   28.4181    5.2432 H         1 UNK         0.3459 
    133 H133       36.0006   28.4555    3.8098 H         1 UNK         0.3459 
    134 H134       32.3867   28.6082    5.9680 H         1 UNK         0.0616 
    135 H135       32.7183   27.0672    6.6850 H         1 UNK         0.0616 
    136 H136       31.6824   25.0263    6.3840 H         1 UNK         0.0634 
    137 H137       30.2147   25.7605    6.9816 H         1 UNK         0.0634 
@<TRIPOS>BOND
     1    1    2 1    
     2    1   72 1    
     3    1   73 1    
     4    1   74 1    
     5    2    3 2    
     6    2    4 am   BACKBONE|DICT|INTERRES
     7    4    5 1    
     8    4   75 1    
     9    5    6 1    
    10    5   35 1    
    11    5   76 1    
    12    6    7 1    
    13    6   77 1    
    14    6   78 1    
    15    7    8 1    
    16    8    9 1    
    17    8   79 1    
    18    8   80 1    
    19    9   10 ar   
    20    9   14 ar   
    21   10   11 ar   
    22   10   81 1    
    23   11   12 ar   
    24   11   71 1    
    25   12   13 ar   
    26   12   82 1    
    27   13   14 ar   
    28   13   15 1    
    29   14   83 1    
    30   15   16 1    
    31   15   84 1    
    32   15   85 1    
    33   16   17 1    
    34   17   18 1    
    35   17   86 1    
    36   17   87 1    
    37   18   19 1    
    38   18   37 1    
    39   18   88 1    
    40   19   20 am   BACKBONE|DICT|INTERRES
    41   19   89 1    
    42   20   21 2    
    43   20   22 1    
    44   22   23 1    
    45   22   24 1    
    46   22   90 1    
    47   23   91 1    
    48   23   92 1    
    49   23   93 1    
    50   24   25 am   BACKBONE|DICT|INTERRES
    51   24   94 1    
    52   25   26 2    
    53   25   27 1    
    54   27   28 1    
    55   27   29 1    
    56   27   95 1    
    57   28   96 1    
    58   28   97 1    
    59   28   98 1    
    60   29   30 am   BACKBONE|DICT|INTERRES
    61   29   99 1    
    62   30   31 2    
    63   30   32 1    
    64   32   33 1    
    65   32   34 1    
    66   32  100 1    
    67   33  101 1    
    68   33  102 1    
    69   33  103 1    
    70   34   35 am   BACKBONE|DICT|INTERRES
    71   34  104 1    
    72   35   36 2    
    73   37   38 2    
    74   37   39 am   BACKBONE|DICT|INTERRES
    75   39   40 1    
    76   39  105 1    
    77   40   41 1    
    78   40   42 1    
    79   40  106 1    
    80   41  107 1    
    81   41  108 1    
    82   41  109 1    
    83   42   43 2    
    84   42   44 am   BACKBONE|DICT|INTERRES
    85   44   45 1    
    86   44  110 1    
    87   45   46 1    
    88   45   47 1    
    89   45  111 1    
    90   46  112 1    
    91   46  113 1    
    92   46  114 1    
    93   47   48 2    
    94   47   49 am   BACKBONE|DICT|INTERRES
    95   49   50 1    
    96   49  115 1    
    97   50   51 1    
    98   50   52 1    
    99   50  116 1    
   100   51  117 1    
   101   51  118 1    
   102   51  119 1    
   103   52   53 2    
   104   52   54 am   BACKBONE|DICT|INTERRES
   105   54   55 1    
   106   54  120 1    
   107   55   56 1    
   108   55   57 1    
   109   55  121 1    
   110   56  122 1    
   111   56  123 1    
   112   56  124 1    
   113   57   58 2    
   114   57   59 am   BACKBONE|DICT|INTERRES
   115   59   60 1    
   116   59  125 1    
   117   60   61 1    
   118   60   62 1    
   119   60  126 1    
   120   61  127 1    
   121   61  128 1    
   122   61  129 1    
   123   62   63 2    
   124   62   64 am   BACKBONE|DICT|INTERRES
   125   64   65 1    
   126   64  130 1    
   127   65   66 1    
   128   65   69 1    
   129   65  131 1    
   130   66   67 am   BACKBONE|DICT|INTERRES
   131   66   68 2    
   132   67  132 1    
   133   67  133 1    
   134   69   70 1    
   135   69  134 1    
   136   69  135 1    
   137   70   71 1    
   138   71  136 1    
   139   71  137 1    
@<TRIPOS>SUBSTRUCTURE
     1 UNK         1 GROUP             0       ****    0 ROOT    
