@<TRIPOS>MOLECULE
3R136
137   139    1
SMALL
USER_CHARGES


@<TRIPOS>ATOM
      1 CA         28.3711   23.2859   -3.8109 C.3       0 UNK        -0.1979 
      2 C          28.8940   23.8825   -2.5138 C.2       0 UNK         0.4864 
      3 O          28.5870   25.0347   -2.2031 O.2       0 UNK        -0.5359 
      4 N          29.6666   23.1059   -1.7400 N.am      1 UNK        -0.4318 
      5 CA         30.2677   23.5243   -0.4662 C.3       1 UNK         0.0824 
      6 C6         31.2610   22.4659    0.0805 C.3       12 UNK        -0.0944 
      7 S7         30.4649   20.9192    0.6608 S.3       12 UNK        -0.2672 
      8 C8         31.3001   20.5537    2.2434 C.3       12 UNK         0.0333 
      9 C9         31.4262   21.7563    3.1724 C.ar      12 UNK        -0.0807 
     10 C10        32.6894   22.3016    3.4211 C.ar      12 UNK        -0.0894 
     11 C11        32.8376   23.4091    4.2593 C.ar      12 UNK        -0.0804 
     12 C12        31.7088   23.9514    4.8805 C.ar      12 UNK        -0.0824 
     13 C13        30.4372   23.4167    4.6456 C.ar      12 UNK        -0.0762 
     14 C14        30.3011   22.3185    3.7870 C.ar      12 UNK        -0.0782 
     15 C15        29.2201   24.0066    5.3506 C.3       12 UNK         0.0230 
     16 S16        28.3985   25.3144    4.3821 S.3       12 UNK        -0.2608 
     17 C17        29.6278   26.6586    4.4464 C.3       12 UNK        -0.0989 
     18 CA         29.2527   27.9322    3.6495 C.3       5 UNK         0.0716 
     19 N          29.2126   27.6976    2.2012 N.am      5 UNK        -0.4135 
     20 C          29.4027   28.6608    1.2889 C.2       4 UNK         0.5031 
     21 O          29.6510   29.8295    1.5803 O.2       4 UNK        -0.5229 
     22 CA         29.2544   28.2821   -0.1947 C.3       4 UNK         0.0329 
     23 CB         30.5595   27.6744   -0.7310 C.3       4 UNK        -0.2001 
     24 N          28.1306   27.3816   -0.4716 N.am      4 UNK        -0.4303 
     25 C          26.8476   27.6486   -0.1841 C.2       3 UNK         0.5044 
     26 O          26.4737   28.6742    0.3815 O.2       3 UNK        -0.5152 
     27 CA         25.8123   26.5748   -0.5406 C.3       3 UNK         0.0319 
     28 CB         25.4992   26.5770   -2.0455 C.3       3 UNK        -0.2001 
     29 N          26.2814   25.2567   -0.1199 N.am      3 UNK        -0.4354 
     30 C          26.2081   24.8107    1.1430 C.2       2 UNK         0.4964 
     31 O          25.6123   25.4032    2.0425 O.2       2 UNK        -0.5047 
     32 CA         26.9224   23.4862    1.4633 C.3       2 UNK         0.0288 
     33 CB         25.9460   22.3049    1.3483 C.3       2 UNK        -0.2113 
     34 N          28.0883   23.2275    0.6181 N.am      2 UNK        -0.4145 
     35 C          29.2134   23.9597    0.5774 C.2       1 UNK         0.5006 
     36 O          29.4088   24.9672    1.2567 O.2       1 UNK        -0.5103 
     37 C          28.0099   28.6596    4.2088 C.2       5 UNK         0.5055 
     38 O          28.0592   29.1159    5.3526 O.2       5 UNK        -0.5220 
     39 N          26.9348   28.7729    3.4162 N.am      6 UNK        -0.4450 
     40 CA         25.7439   29.5516    3.7527 C.3       6 UNK         0.0367 
     41 CB         24.4888   28.8054    3.2692 C.3       6 UNK        -0.1929 
     42 C          25.8168   30.9572    3.1365 C.2       6 UNK         0.5070 
     43 O          25.5197   31.9358    3.8219 O.2       6 UNK        -0.5237 
     44 N          26.1891   31.0333    1.8520 N.am      7 UNK        -0.4739 
     45 CA         26.2152   32.2648    1.0612 C.3       7 UNK         0.0276 
     46 CB         26.1478   31.8962   -0.4301 C.3       7 UNK        -0.1927 
     47 C          27.4374   33.1581    1.3279 C.2       7 UNK         0.5013 
     48 O          27.3362   34.3709    1.1347 O.2       7 UNK        -0.5193 
     49 N          28.5652   32.5619    1.7302 N.am      8 UNK        -0.4253 
     50 CA         29.8429   33.2382    1.9481 C.3       8 UNK         0.0242 
     51 CB         30.7465   33.0010    0.7199 C.3       8 UNK        -0.2000 
     52 C          30.4852   32.7564    3.2586 C.2       8 UNK         0.4948 
     53 O          29.8368   32.0846    4.0628 O.2       8 UNK        -0.5275 
     54 N          31.7596   33.1174    3.4564 N.am      9 UNK        -0.4246 
     55 CA         32.5585   32.8484    4.6583 C.3       9 UNK         0.0261 
     56 CB         33.7117   33.8682    4.7136 C.3       9 UNK        -0.1959 
     57 C          33.0823   31.4002    4.7889 C.2       9 UNK         0.5033 
     58 O          33.9453   31.1599    5.6356 O.2       9 UNK        -0.5390 
     59 N          32.5652   30.4692    3.9737 N.am      10 UNK        -0.4215 
     60 CA         32.9186   29.0465    3.9090 C.3       10 UNK         0.0240 
     61 CB         32.6252   28.3395    5.2558 C.3       10 UNK        -0.1982 
     62 C          34.3489   28.8053    3.3880 C.2       10 UNK         0.4970 
     63 O          34.8970   29.6453    2.6704 O.2       10 UNK        -0.4916 
     64 N          34.8880   27.6229    3.7006 N.am      11 UNK        -0.4279 
     65 CA         36.1915   27.1185    3.2526 C.3       11 UNK         0.1003 
     66 C          37.3831   27.9444    3.8081 C.2       11 UNK         0.5709 
     67 N          38.4261   28.1427    3.0134 N.am      11 UNK        -0.7358 
     68 O          37.3890   28.3642    4.9640 O.2       11 UNK        -0.4999 
     69 C69        36.3559   25.6138    3.5961 C.3       12 UNK        -0.0954 
     70 S70        34.9813   24.5960    2.9546 S.3       12 UNK        -0.2268 
     71 C71        34.2166   24.0089    4.5019 C.3       12 UNK         0.0203 
     72 H72        27.2816   23.2964   -3.8154 H         1 UNK         0.0888 
     73 H73        28.7210   23.8733   -4.6592 H         1 UNK         0.0888 
     74 H74        28.7024   22.2570   -3.9496 H         1 UNK         0.0888 
     75 H75        29.8783   22.1623   -2.0331 H         1 UNK         0.3017 
     76 H76        30.8544   24.4164   -0.6936 H         1 UNK         0.0873 
     77 H77        31.8547   22.9161    0.8748 H         1 UNK         0.0745 
     78 H78        31.9830   22.2023   -0.6938 H         1 UNK         0.0745 
     79 H79        32.2839   20.1367    2.0223 H         1 UNK         0.0705 
     80 H80        30.7481   19.7643    2.7553 H         1 UNK         0.0705 
     81 H81        33.5635   21.8755    2.9473 H         1 UNK         0.1334 
     82 H82        31.8170   24.7937    5.5496 H         1 UNK         0.1417 
     83 H83        29.3220   21.9006    3.5964 H         1 UNK         0.1562 
     84 H84        29.5028   24.4043    6.3265 H         1 UNK         0.0748 
     85 H85        28.4948   23.2160    5.5485 H         1 UNK         0.0748 
     86 H86        30.5697   26.2768    4.0536 H         1 UNK         0.0940 
     87 H87        29.8133   26.9070    5.4929 H         1 UNK         0.0940 
     88 H88        30.0624   28.6406    3.8239 H         1 UNK         0.0703 
     89 H89        29.0699   26.7364    1.8952 H         1 UNK         0.3081 
     90 H90        29.0625   29.2050   -0.7460 H         1 UNK         0.0719 
     91 H91        30.4790   27.4274   -1.7898 H         1 UNK         0.0809 
     92 H92        31.3874   28.3764   -0.6225 H         1 UNK         0.0809 
     93 H93        30.8328   26.7667   -0.1939 H         1 UNK         0.0809 
     94 H94        28.3463   26.5167   -0.9607 H         1 UNK         0.2990 
     95 H95        24.8870   26.8099   -0.0096 H         1 UNK         0.0690 
     96 H96        25.1083   27.5466   -2.3566 H         1 UNK         0.0788 
     97 H97        24.7455   25.8296   -2.2934 H         1 UNK         0.0788 
     98 H98        26.3824   26.3753   -2.6516 H         1 UNK         0.0788 
     99 H99        26.8292   24.7354   -0.7913 H         1 UNK         0.2993 
    100 H100       27.2692   23.5380    2.4954 H         1 UNK         0.0949 
    101 H101       25.5790   22.1812    0.3285 H         1 UNK         0.0767 
    102 H102       26.4170   21.3701    1.6532 H         1 UNK         0.0767 
    103 H103       25.0779   22.4535    1.9921 H         1 UNK         0.0767 
    104 H104       28.0410   22.4162    0.0191 H         1 UNK         0.3013 
    105 H105       26.9752   28.3910    2.4795 H         1 UNK         0.3121 
    106 H106       25.6628   29.6647    4.8360 H         1 UNK         0.0774 
    107 H107       24.4834   28.6678    2.1876 H         1 UNK         0.0815 
    108 H108       23.5842   29.3549    3.5323 H         1 UNK         0.0815 
    109 H109       24.4156   27.8190    3.7280 H         1 UNK         0.0815 
    110 H110       26.3756   30.1697    1.3436 H         1 UNK         0.2987 
    111 H111       25.3254   32.8491    1.3065 H         1 UNK         0.0949 
    112 H112       27.0090   31.3003   -0.7359 H         1 UNK         0.0806 
    113 H113       25.2485   31.3233   -0.6569 H         1 UNK         0.0806 
    114 H114       26.1295   32.7903   -1.0549 H         1 UNK         0.0806 
    115 H115       28.5763   31.5601    1.8964 H         1 UNK         0.3010 
    116 H116       29.6812   34.3121    2.0620 H         1 UNK         0.0829 
    117 H117       30.2394   33.2869   -0.2018 H         1 UNK         0.0813 
    118 H118       31.6617   33.5913    0.7697 H         1 UNK         0.0813 
    119 H119       31.0335   31.9530    0.6262 H         1 UNK         0.0813 
    120 H120       32.2208   33.6490    2.7319 H         1 UNK         0.3038 
    121 H121       31.9208   33.0216    5.5278 H         1 UNK         0.0769 
    122 H122       34.4102   33.7299    3.8873 H         1 UNK         0.0811 
    123 H123       34.2804   33.7727    5.6396 H         1 UNK         0.0811 
    124 H124       33.3405   34.8924    4.6741 H         1 UNK         0.0811 
    125 H125       31.8646   30.7754    3.3128 H         1 UNK         0.3204 
    126 H126       32.2615   28.6146    3.1535 H         1 UNK         0.0748 
    127 H127       32.6002   27.2557    5.1435 H         1 UNK         0.0771 
    128 H128       33.3788   28.5734    6.0090 H         1 UNK         0.0771 
    129 H129       31.6593   28.6407    5.6612 H         1 UNK         0.0771 
    130 H130       34.3679   27.0018    4.2991 H         1 UNK         0.2980 
    131 H131       36.2020   27.2131    2.1648 H         1 UNK         0.0545 
    132 H132       39.2161   28.6620    3.3632 H         1 UNK         0.3459 
    133 H133       38.4376   27.7898    2.0690 H         1 UNK         0.3459 
    134 H134       37.2809   25.2282    3.1637 H         1 UNK         0.0616 
    135 H135       36.4453   25.4718    4.6749 H         1 UNK         0.0616 
    136 H136       34.1509   24.8379    5.2080 H         1 UNK         0.0634 
    137 H137       34.8630   23.2590    4.9599 H         1 UNK         0.0634 
@<TRIPOS>BOND
     1    1    2 1    
     2    1   72 1    
     3    1   73 1    
     4    1   74 1    
     5    2    3 2    
     6    2    4 am   BACKBONE|DICT|INTERRES
     7    4    5 1    
     8    4   75 1    
     9    5    6 1    
    10    5   35 1    
    11    5   76 1    
    12    6    7 1    
    13    6   77 1    
    14    6   78 1    
    15    7    8 1    
    16    8    9 1    
    17    8   79 1    
    18    8   80 1    
    19    9   10 ar   
    20    9   14 ar   
    21   10   11 ar   
    22   10   81 1    
    23   11   12 ar   
    24   11   71 1    
    25   12   13 ar   
    26   12   82 1    
    27   13   14 ar   
    28   13   15 1    
    29   14   83 1    
    30   15   16 1    
    31   15   84 1    
    32   15   85 1    
    33   16   17 1    
    34   17   18 1    
    35   17   86 1    
    36   17   87 1    
    37   18   19 1    
    38   18   37 1    
    39   18   88 1    
    40   19   20 am   BACKBONE|DICT|INTERRES
    41   19   89 1    
    42   20   21 2    
    43   20   22 1    
    44   22   23 1    
    45   22   24 1    
    46   22   90 1    
    47   23   91 1    
    48   23   92 1    
    49   23   93 1    
    50   24   25 am   BACKBONE|DICT|INTERRES
    51   24   94 1    
    52   25   26 2    
    53   25   27 1    
    54   27   28 1    
    55   27   29 1    
    56   27   95 1    
    57   28   96 1    
    58   28   97 1    
    59   28   98 1    
    60   29   30 am   BACKBONE|DICT|INTERRES
    61   29   99 1    
    62   30   31 2    
    63   30   32 1    
    64   32   33 1    
    65   32   34 1    
    66   32  100 1    
    67   33  101 1    
    68   33  102 1    
    69   33  103 1    
    70   34   35 am   BACKBONE|DICT|INTERRES
    71   34  104 1    
    72   35   36 2    
    73   37   38 2    
    74   37   39 am   BACKBONE|DICT|INTERRES
    75   39   40 1    
    76   39  105 1    
    77   40   41 1    
    78   40   42 1    
    79   40  106 1    
    80   41  107 1    
    81   41  108 1    
    82   41  109 1    
    83   42   43 2    
    84   42   44 am   BACKBONE|DICT|INTERRES
    85   44   45 1    
    86   44  110 1    
    87   45   46 1    
    88   45   47 1    
    89   45  111 1    
    90   46  112 1    
    91   46  113 1    
    92   46  114 1    
    93   47   48 2    
    94   47   49 am   BACKBONE|DICT|INTERRES
    95   49   50 1    
    96   49  115 1    
    97   50   51 1    
    98   50   52 1    
    99   50  116 1    
   100   51  117 1    
   101   51  118 1    
   102   51  119 1    
   103   52   53 2    
   104   52   54 am   BACKBONE|DICT|INTERRES
   105   54   55 1    
   106   54  120 1    
   107   55   56 1    
   108   55   57 1    
   109   55  121 1    
   110   56  122 1    
   111   56  123 1    
   112   56  124 1    
   113   57   58 2    
   114   57   59 am   BACKBONE|DICT|INTERRES
   115   59   60 1    
   116   59  125 1    
   117   60   61 1    
   118   60   62 1    
   119   60  126 1    
   120   61  127 1    
   121   61  128 1    
   122   61  129 1    
   123   62   63 2    
   124   62   64 am   BACKBONE|DICT|INTERRES
   125   64   65 1    
   126   64  130 1    
   127   65   66 1    
   128   65   69 1    
   129   65  131 1    
   130   66   67 am   BACKBONE|DICT|INTERRES
   131   66   68 2    
   132   67  132 1    
   133   67  133 1    
   134   69   70 1    
   135   69  134 1    
   136   69  135 1    
   137   70   71 1    
   138   71  136 1    
   139   71  137 1    
@<TRIPOS>SUBSTRUCTURE
     1 UNK         1 GROUP             0       ****    0 ROOT    
