@<TRIPOS>MOLECULE
3R136
137   139    1
SMALL
USER_CHARGES


@<TRIPOS>ATOM
      1 CA         29.5280   19.8962    0.0109 C.3       0 UNK        -0.1979 
      2 C          29.5512   20.8795   -1.1503 C.2       0 UNK         0.4864 
      3 O          29.3387   20.4805   -2.2966 O.2       0 UNK        -0.5359 
      4 N          29.8151   22.1594   -0.8617 N.am      1 UNK        -0.4318 
      5 CA         29.7868   23.2643   -1.8233 C.3       1 UNK         0.0824 
      6 C6         30.5962   24.4902   -1.3190 C.3       12 UNK        -0.0944 
      7 S7         30.1605   25.0426    0.3694 S.3       12 UNK        -0.2672 
      8 C8         31.6253   24.4681    1.2871 C.3       12 UNK         0.0333 
      9 C9         31.3982   24.5788    2.7838 C.ar      12 UNK        -0.0807 
     10 C10        31.8992   25.6693    3.4992 C.ar      12 UNK        -0.0894 
     11 C11        31.6375   25.7995    4.8660 C.ar      12 UNK        -0.0804 
     12 C12        30.8751   24.8269    5.5196 C.ar      12 UNK        -0.0824 
     13 C13        30.3716   23.7306    4.8119 C.ar      12 UNK        -0.0762 
     14 C14        30.6548   23.6008    3.4492 C.ar      12 UNK        -0.0782 
     15 C15        29.4591   22.7236    5.4954 C.3       12 UNK         0.0230 
     16 S16        27.7561   22.8254    4.8482 S.3       12 UNK        -0.2608 
     17 C17        27.3049   24.5524    5.2429 C.3       12 UNK        -0.0989 
     18 CA         27.5581   25.5396    4.0643 C.3       5 UNK         0.0716 
     19 N          26.9122   25.1524    2.8033 N.am      5 UNK        -0.4135 
     20 C          25.5950   25.0433    2.5831 C.2       4 UNK         0.5031 
     21 O          24.7283   25.2800    3.4272 O.2       4 UNK        -0.5229 
     22 CA         25.1982   24.6007    1.1615 C.3       4 UNK         0.0329 
     23 CB         23.6708   24.5092    0.9562 C.3       4 UNK        -0.2001 
     24 N          25.8164   25.4336    0.1218 N.am      4 UNK        -0.4303 
     25 C          25.6581   26.7568   -0.0581 C.2       3 UNK         0.5044 
     26 O          24.9570   27.4668    0.6611 O.2       3 UNK        -0.5152 
     27 CA         26.4196   27.4244   -1.2211 C.3       3 UNK         0.0319 
     28 CB         27.5965   28.2492   -0.6771 C.3       3 UNK        -0.2001 
     29 N          26.9266   26.4787   -2.2162 N.am      3 UNK        -0.4354 
     30 C          26.1692   25.7798   -3.0741 C.2       2 UNK         0.4964 
     31 O          24.9543   25.9368   -3.1976 O.2       2 UNK        -0.5047 
     32 CA         26.8779   24.7032   -3.9202 C.3       2 UNK         0.0288 
     33 CB         27.0919   25.2059   -5.3576 C.3       2 UNK        -0.2113 
     34 N          28.1637   24.2418   -3.3772 N.am      2 UNK        -0.4145 
     35 C          28.3374   23.6470   -2.1870 C.2       1 UNK         0.5006 
     36 O          27.4223   23.4531   -1.3805 O.2       1 UNK        -0.5103 
     37 C          27.2922   27.0135    4.4432 C.2       5 UNK         0.5055 
     38 O          27.1537   27.3331    5.6256 O.2       5 UNK        -0.5220 
     39 N          27.2508   27.8888    3.4306 N.am      6 UNK        -0.4450 
     40 CA         27.1279   29.3417    3.5718 C.3       6 UNK         0.0367 
     41 CB         25.6797   29.7693    3.2715 C.3       6 UNK        -0.1929 
     42 C          28.1503   30.0723    2.6836 C.2       6 UNK         0.5070 
     43 O          27.9330   31.2312    2.3257 O.2       6 UNK        -0.5237 
     44 N          29.2512   29.3931    2.3307 N.am      7 UNK        -0.4739 
     45 CA         30.3614   29.9418    1.5523 C.3       7 UNK         0.0276 
     46 CB         31.1515   28.7837    0.9141 C.3       7 UNK        -0.1927 
     47 C          31.2493   30.8133    2.4537 C.2       7 UNK         0.5013 
     48 O          32.2958   30.3503    2.9076 O.2       7 UNK        -0.5193 
     49 N          30.8026   32.0479    2.7226 N.am      8 UNK        -0.4253 
     50 CA         31.3918   33.0053    3.6708 C.3       8 UNK         0.0242 
     51 CB         30.6321   34.3381    3.5813 C.3       8 UNK        -0.2000 
     52 C          32.9072   33.2434    3.5312 C.2       8 UNK         0.4948 
     53 O          33.5735   33.4595    4.5432 O.2       8 UNK        -0.5275 
     54 N          33.4322   33.1546    2.3010 N.am      9 UNK        -0.4246 
     55 CA         34.8650   33.2210    1.9968 C.3       9 UNK         0.0261 
     56 CB         35.0547   33.2842    0.4725 C.3       9 UNK        -0.1959 
     57 C          35.6860   32.0590    2.5928 C.2       9 UNK         0.5033 
     58 O          36.8745   32.2458    2.8584 O.2       9 UNK        -0.5390 
     59 N          35.0510   30.8962    2.7921 N.am      10 UNK        -0.4215 
     60 CA         35.6302   29.7231    3.4443 C.3       10 UNK         0.0240 
     61 CB         35.2016   28.4532    2.6881 C.3       10 UNK        -0.1982 
     62 C          35.1955   29.6431    4.9148 C.2       10 UNK         0.4970 
     63 O          36.0291   29.3391    5.7687 O.2       10 UNK        -0.4916 
     64 N          33.9065   29.8955    5.1834 N.am      11 UNK        -0.4279 
     65 CA         33.3042   29.8089    6.5226 C.3       11 UNK         0.1003 
     66 C          33.7592   30.9210    7.5095 C.2       11 UNK         0.5709 
     67 N          34.1631   32.0988    7.0496 N.am      11 UNK        -0.7358 
     68 O          33.7518   30.7051    8.7192 O.2       11 UNK        -0.4999 
     69 C69        31.7535   29.7336    6.4641 C.3       12 UNK        -0.0954 
     70 S70        31.0274   28.4214    5.4160 S.3       12 UNK        -0.2268 
     71 C71        32.1546   27.0086    5.6254 C.3       12 UNK         0.0203 
     72 H72        29.7425   20.3829    0.9623 H         1 UNK         0.0888 
     73 H73        28.5474   19.4267    0.0844 H         1 UNK         0.0888 
     74 H74        30.2704   19.1139   -0.1445 H         1 UNK         0.0888 
     75 H75        29.9308   22.4409    0.1002 H         1 UNK         0.3017 
     76 H76        30.2636   22.9117   -2.7409 H         1 UNK         0.0873 
     77 H77        30.4839   25.3388   -1.9963 H         1 UNK         0.0745 
     78 H78        31.6600   24.2491   -1.3486 H         1 UNK         0.0745 
     79 H79        31.8457   23.4317    1.0271 H         1 UNK         0.0705 
     80 H80        32.4937   25.0558    0.9849 H         1 UNK         0.0705 
     81 H81        32.4761   26.4291    2.9911 H         1 UNK         0.1334 
     82 H82        30.6492   24.9410    6.5712 H         1 UNK         0.1417 
     83 H83        30.2491   22.7638    2.8976 H         1 UNK         0.1562 
     84 H84        29.4445   22.8760    6.5758 H         1 UNK         0.0748 
     85 H85        29.8442   21.7163    5.3308 H         1 UNK         0.0748 
     86 H86        27.8624   24.8607    6.1293 H         1 UNK         0.0940 
     87 H87        26.2537   24.5714    5.5347 H         1 UNK         0.0940 
     88 H88        28.6235   25.5209    3.8434 H         1 UNK         0.0703 
     89 H89        27.5400   24.9239    2.0453 H         1 UNK         0.3081 
     90 H90        25.6049   23.5967    1.0290 H         1 UNK         0.0719 
     91 H91        23.4267   24.1621   -0.0478 H         1 UNK         0.0809 
     92 H92        23.1811   25.4719    1.1065 H         1 UNK         0.0809 
     93 H93        23.2250   23.8056    1.6602 H         1 UNK         0.0809 
     94 H94        26.4215   24.9293   -0.5205 H         1 UNK         0.2990 
     95 H95        25.7255   28.1033   -1.7212 H         1 UNK         0.0690 
     96 H96        28.1456   28.7431   -1.4789 H         1 UNK         0.0788 
     97 H97        28.2970   27.6264   -0.1205 H         1 UNK         0.0788 
     98 H98        27.2435   29.0303   -0.0029 H         1 UNK         0.0788 
     99 H99        27.9179   26.2918   -2.1971 H         1 UNK         0.2993 
    100 H100       26.2103   23.8394   -3.9544 H         1 UNK         0.0949 
    101 H101       26.1498   25.5284   -5.8037 H         1 UNK         0.0767 
    102 H102       27.7754   26.0555   -5.3906 H         1 UNK         0.0767 
    103 H103       27.4973   24.4216   -5.9972 H         1 UNK         0.0767 
    104 H104       28.9686   24.3737   -3.9734 H         1 UNK         0.3013 
    105 H105       27.3308   27.5411    2.4859 H         1 UNK         0.3121 
    106 H106       27.3643   29.6354    4.5967 H         1 UNK         0.0774 
    107 H107       25.5362   30.8332    3.4641 H         1 UNK         0.0815 
    108 H108       25.4158   29.5881    2.2295 H         1 UNK         0.0815 
    109 H109       24.9686   29.2287    3.8962 H         1 UNK         0.0815 
    110 H110       29.4007   28.4809    2.7368 H         1 UNK         0.2987 
    111 H111       29.9701   30.5678    0.7471 H         1 UNK         0.0949 
    112 H112       31.5121   28.0796    1.6632 H         1 UNK         0.0806 
    113 H113       30.5448   28.2284    0.2006 H         1 UNK         0.0806 
    114 H114       32.0222   29.1558    0.3727 H         1 UNK         0.0806 
    115 H115       29.8927   32.2919    2.3495 H         1 UNK         0.3010 
    116 H116       31.2306   32.5942    4.6686 H         1 UNK         0.0829 
    117 H117       29.5739   34.2085    3.8096 H         1 UNK         0.0813 
    118 H118       31.0281   35.0633    4.2939 H         1 UNK         0.0813 
    119 H119       30.7100   34.7808    2.5875 H         1 UNK         0.0813 
    120 H120       32.8076   32.9752    1.5283 H         1 UNK         0.3038 
    121 H121       35.2520   34.1465    2.4286 H         1 UNK         0.0769 
    122 H122       36.1118   33.3634    0.2143 H         1 UNK         0.0811 
    123 H123       34.5534   34.1527    0.0447 H         1 UNK         0.0811 
    124 H124       34.6653   32.3925   -0.0206 H         1 UNK         0.0811 
    125 H125       34.0539   30.8431    2.5969 H         1 UNK         0.3204 
    126 H126       36.7206   29.7786    3.4182 H         1 UNK         0.0748 
    127 H127       35.6196   27.5605    3.1554 H         1 UNK         0.0771 
    128 H128       34.1176   28.3350    2.6708 H         1 UNK         0.0771 
    129 H129       35.5506   28.4727    1.6556 H         1 UNK         0.0771 
    130 H130       33.2690   30.0961    4.4165 H         1 UNK         0.2980 
    131 H131       33.6575   28.8772    6.9669 H         1 UNK         0.0545 
    132 H132       34.1022   32.3332    6.0644 H         1 UNK         0.3459 
    133 H133       34.4603   32.8016    7.7067 H         1 UNK         0.3459 
    134 H134       31.3489   30.6837    6.1128 H         1 UNK         0.0616 
    135 H135       31.3514   29.5924    7.4691 H         1 UNK         0.0616 
    136 H136       33.1488   27.2613    5.2568 H         1 UNK         0.0634 
    137 H137       32.2581   26.7791    6.6869 H         1 UNK         0.0634 
@<TRIPOS>BOND
     1    1    2 1    
     2    1   72 1    
     3    1   73 1    
     4    1   74 1    
     5    2    3 2    
     6    2    4 am   BACKBONE|DICT|INTERRES
     7    4    5 1    
     8    4   75 1    
     9    5    6 1    
    10    5   35 1    
    11    5   76 1    
    12    6    7 1    
    13    6   77 1    
    14    6   78 1    
    15    7    8 1    
    16    8    9 1    
    17    8   79 1    
    18    8   80 1    
    19    9   10 ar   
    20    9   14 ar   
    21   10   11 ar   
    22   10   81 1    
    23   11   12 ar   
    24   11   71 1    
    25   12   13 ar   
    26   12   82 1    
    27   13   14 ar   
    28   13   15 1    
    29   14   83 1    
    30   15   16 1    
    31   15   84 1    
    32   15   85 1    
    33   16   17 1    
    34   17   18 1    
    35   17   86 1    
    36   17   87 1    
    37   18   19 1    
    38   18   37 1    
    39   18   88 1    
    40   19   20 am   BACKBONE|DICT|INTERRES
    41   19   89 1    
    42   20   21 2    
    43   20   22 1    
    44   22   23 1    
    45   22   24 1    
    46   22   90 1    
    47   23   91 1    
    48   23   92 1    
    49   23   93 1    
    50   24   25 am   BACKBONE|DICT|INTERRES
    51   24   94 1    
    52   25   26 2    
    53   25   27 1    
    54   27   28 1    
    55   27   29 1    
    56   27   95 1    
    57   28   96 1    
    58   28   97 1    
    59   28   98 1    
    60   29   30 am   BACKBONE|DICT|INTERRES
    61   29   99 1    
    62   30   31 2    
    63   30   32 1    
    64   32   33 1    
    65   32   34 1    
    66   32  100 1    
    67   33  101 1    
    68   33  102 1    
    69   33  103 1    
    70   34   35 am   BACKBONE|DICT|INTERRES
    71   34  104 1    
    72   35   36 2    
    73   37   38 2    
    74   37   39 am   BACKBONE|DICT|INTERRES
    75   39   40 1    
    76   39  105 1    
    77   40   41 1    
    78   40   42 1    
    79   40  106 1    
    80   41  107 1    
    81   41  108 1    
    82   41  109 1    
    83   42   43 2    
    84   42   44 am   BACKBONE|DICT|INTERRES
    85   44   45 1    
    86   44  110 1    
    87   45   46 1    
    88   45   47 1    
    89   45  111 1    
    90   46  112 1    
    91   46  113 1    
    92   46  114 1    
    93   47   48 2    
    94   47   49 am   BACKBONE|DICT|INTERRES
    95   49   50 1    
    96   49  115 1    
    97   50   51 1    
    98   50   52 1    
    99   50  116 1    
   100   51  117 1    
   101   51  118 1    
   102   51  119 1    
   103   52   53 2    
   104   52   54 am   BACKBONE|DICT|INTERRES
   105   54   55 1    
   106   54  120 1    
   107   55   56 1    
   108   55   57 1    
   109   55  121 1    
   110   56  122 1    
   111   56  123 1    
   112   56  124 1    
   113   57   58 2    
   114   57   59 am   BACKBONE|DICT|INTERRES
   115   59   60 1    
   116   59  125 1    
   117   60   61 1    
   118   60   62 1    
   119   60  126 1    
   120   61  127 1    
   121   61  128 1    
   122   61  129 1    
   123   62   63 2    
   124   62   64 am   BACKBONE|DICT|INTERRES
   125   64   65 1    
   126   64  130 1    
   127   65   66 1    
   128   65   69 1    
   129   65  131 1    
   130   66   67 am   BACKBONE|DICT|INTERRES
   131   66   68 2    
   132   67  132 1    
   133   67  133 1    
   134   69   70 1    
   135   69  134 1    
   136   69  135 1    
   137   70   71 1    
   138   71  136 1    
   139   71  137 1    
@<TRIPOS>SUBSTRUCTURE
     1 UNK         1 GROUP             0       ****    0 ROOT    
