@<TRIPOS>MOLECULE
3R136
137   139    1
SMALL
USER_CHARGES


@<TRIPOS>ATOM
      1 CA         25.5083   19.0648    1.3015 C.3       0 UNK        -0.1979 
      2 C          25.9737   19.6393   -0.0285 C.2       0 UNK         0.4864 
      3 O          25.3550   19.3733   -1.0606 O.2       0 UNK        -0.5359 
      4 N          27.0631   20.4173   -0.0123 N.am      1 UNK        -0.4318 
      5 CA         27.6057   21.1277   -1.1735 C.3       1 UNK         0.0824 
      6 C6         29.0795   21.5524   -0.9372 C.3       12 UNK        -0.0944 
      7 S7         29.3298   22.6546    0.4991 S.3       12 UNK        -0.2672 
      8 C8         31.0837   23.0904    0.2631 C.3       12 UNK         0.0333 
      9 C9         31.6250   23.9464    1.4013 C.ar      12 UNK        -0.0807 
     10 C10        32.2474   25.1738    1.1443 C.ar      12 UNK        -0.0894 
     11 C11        32.7975   25.9259    2.1900 C.ar      12 UNK        -0.0804 
     12 C12        32.7102   25.4450    3.5007 C.ar      12 UNK        -0.0824 
     13 C13        32.0387   24.2509    3.7743 C.ar      12 UNK        -0.0762 
     14 C14        31.5292   23.4921    2.7187 C.ar      12 UNK        -0.0782 
     15 C15        31.8249   23.7896    5.2074 C.3       12 UNK         0.0230 
     16 S16        30.0493   23.7550    5.6252 S.3       12 UNK        -0.2608 
     17 C17        29.6533   25.5276    5.8285 C.3       12 UNK        -0.0989 
     18 CA         29.3248   26.2929    4.5114 C.3       5 UNK         0.0716 
     19 N          28.3788   25.6078    3.6261 N.am      5 UNK        -0.4135 
     20 C          27.0743   25.3969    3.8413 C.2       4 UNK         0.5031 
     21 O          26.4988   25.6711    4.8960 O.2       4 UNK        -0.5229 
     22 CA         26.2753   24.8106    2.6553 C.3       4 UNK         0.0329 
     23 CB         24.7797   25.1842    2.7187 C.3       4 UNK        -0.2001 
     24 N          26.8160   25.1429    1.3253 N.am      4 UNK        -0.4303 
     25 C          27.0739   26.3688    0.8323 C.2       3 UNK         0.5044 
     26 O          26.9689   27.4065    1.4849 O.2       3 UNK        -0.5152 
     27 CA         27.5477   26.4614   -0.6234 C.3       3 UNK         0.0319 
     28 CB         29.0860   26.3787   -0.6925 C.3       3 UNK        -0.2001 
     29 N          26.9267   25.4180   -1.4345 N.am      3 UNK        -0.4354 
     30 C          26.9373   25.3042   -2.7648 C.2       2 UNK         0.4964 
     31 O          27.4673   26.1192   -3.5218 O.2       2 UNK        -0.5047 
     32 CA         26.2560   24.0364   -3.3272 C.3       2 UNK         0.0288 
     33 CB         26.2739   23.9854   -4.8669 C.3       2 UNK        -0.2113 
     34 N          26.8693   22.8084   -2.8039 N.am      2 UNK        -0.4145 
     35 C          26.7255   22.3356   -1.5570 C.2       1 UNK         0.5006 
     36 O          25.9980   22.8667   -0.7099 O.2       1 UNK        -0.5103 
     37 C          28.9538   27.7748    4.7767 C.2       5 UNK         0.5055 
     38 O          29.3080   28.3009    5.8335 O.2       5 UNK        -0.5220 
     39 N          28.2580   28.4324    3.8359 N.am      6 UNK        -0.4450 
     40 CA         27.7438   29.7958    3.9950 C.3       6 UNK         0.0367 
     41 CB         26.2851   29.7202    4.4863 C.3       6 UNK        -0.1929 
     42 C          27.8749   30.6447    2.7177 C.2       6 UNK         0.5070 
     43 O          27.2372   31.6955    2.6342 O.2       6 UNK        -0.5237 
     44 N          28.6835   30.2040    1.7419 N.am      7 UNK        -0.4739 
     45 CA         28.8818   30.9078    0.4669 C.3       7 UNK         0.0276 
     46 CB         29.5473   29.9682   -0.5496 C.3       7 UNK        -0.1927 
     47 C          29.6876   32.2123    0.5906 C.2       7 UNK         0.5013 
     48 O          29.4815   33.1257   -0.2100 O.2       7 UNK        -0.5193 
     49 N          30.5856   32.2765    1.5776 N.am      8 UNK        -0.4253 
     50 CA         31.4459   33.4136    1.8831 C.3       8 UNK         0.0242 
     51 CB         32.6277   33.4597    0.8939 C.3       8 UNK        -0.2000 
     52 C          31.9492   33.2543    3.3194 C.2       8 UNK         0.4948 
     53 O          31.8797   32.1522    3.8695 O.2       8 UNK        -0.5275 
     54 N          32.5098   34.3336    3.8834 N.am      9 UNK        -0.4246 
     55 CA         33.1335   34.3529    5.2149 C.3       9 UNK         0.0261 
     56 CB         33.5871   35.7832    5.5483 C.3       9 UNK        -0.1959 
     57 C          34.3073   33.3654    5.3653 C.2       9 UNK         0.5033 
     58 O          34.5390   32.8616    6.4651 O.2       9 UNK        -0.5390 
     59 N          34.9845   33.0620    4.2478 N.am      10 UNK        -0.4215 
     60 CA         36.0225   32.0356    4.1254 C.3       10 UNK         0.0240 
     61 CB         36.6158   32.0903    2.7079 C.3       10 UNK        -0.1982 
     62 C          35.5399   30.6073    4.4479 C.2       10 UNK         0.4970 
     63 O          36.3686   29.7757    4.8201 O.2       10 UNK        -0.4916 
     64 N          34.2307   30.3460    4.3199 N.am      11 UNK        -0.4279 
     65 CA         33.5976   29.0903    4.7441 C.3       11 UNK         0.1003 
     66 C          33.3711   28.9796    6.2809 C.2       11 UNK         0.5709 
     67 N          33.5910   30.0219    7.0760 N.am      11 UNK        -0.7358 
     68 O          33.0090   27.9101    6.7654 O.2       11 UNK        -0.4999 
     69 C69        32.2854   28.8046    3.9662 C.3       12 UNK        -0.0954 
     70 S70        32.4633   28.7102    2.1506 S.3       12 UNK        -0.2268 
     71 C71        33.5164   27.2387    1.9003 C.3       12 UNK         0.0203 
     72 H72        26.1536   19.3697    2.1252 H         1 UNK         0.0888 
     73 H73        24.4960   19.4024    1.5215 H         1 UNK         0.0888 
     74 H74        25.5039   17.9760    1.2595 H         1 UNK         0.0888 
     75 H75        27.5148   20.6286    0.8660 H         1 UNK         0.3017 
     76 H76        27.5903   20.4359   -2.0188 H         1 UNK         0.0873 
     77 H77        29.4835   22.0385   -1.8274 H         1 UNK         0.0745 
     78 H78        29.6922   20.6618   -0.7879 H         1 UNK         0.0745 
     79 H79        31.6755   22.1760    0.2008 H         1 UNK         0.0705 
     80 H80        31.1980   23.6015   -0.6941 H         1 UNK         0.0705 
     81 H81        32.3236   25.5355    0.1279 H         1 UNK         0.1334 
     82 H82        33.1363   26.0151    4.3142 H         1 UNK         0.1417 
     83 H83        31.0299   22.5554    2.9278 H         1 UNK         0.1562 
     84 H84        32.3577   24.4262    5.9156 H         1 UNK         0.0748 
     85 H85        32.2359   22.7858    5.3230 H         1 UNK         0.0748 
     86 H86        30.4875   26.0060    6.3460 H         1 UNK         0.0940 
     87 H87        28.8051   25.5913    6.5127 H         1 UNK         0.0940 
     88 H88        30.2374   26.3438    3.9249 H         1 UNK         0.0703 
     89 H89        28.7556   25.3153    2.7364 H         1 UNK         0.3081 
     90 H90        26.3508   23.7263    2.7507 H         1 UNK         0.0719 
     91 H91        24.2248   24.7374    1.8936 H         1 UNK         0.0809 
     92 H92        24.6338   26.2643    2.6765 H         1 UNK         0.0809 
     93 H93        24.3226   24.8288    3.6430 H         1 UNK         0.0809 
     94 H94        26.9921   24.3400    0.7347 H         1 UNK         0.2990 
     95 H95        27.2224   27.4294   -1.0090 H         1 UNK         0.0690 
     96 H96        29.4570   26.6779   -1.6726 H         1 UNK         0.0788 
     97 H97        29.4414   25.3691   -0.4996 H         1 UNK         0.0788 
     98 H98        29.5575   27.0303    0.0443 H         1 UNK         0.0788 
     99 H99        26.4299   24.6892   -0.9289 H         1 UNK         0.2993 
    100 H100       25.2115   24.0656   -3.0085 H         1 UNK         0.0949 
    101 H101       25.7907   24.8659   -5.2927 H         1 UNK         0.0767 
    102 H102       27.2912   23.9493   -5.2589 H         1 UNK         0.0767 
    103 H103       25.7383   23.1126   -5.2411 H         1 UNK         0.0767 
    104 H104       27.5124   22.3391   -3.4254 H         1 UNK         0.3013 
    105 H105       27.9372   27.9416    3.0025 H         1 UNK         0.3121 
    106 H106       28.3290   30.3262    4.7492 H         1 UNK         0.0774 
    107 H107       25.8745   30.7136    4.6709 H         1 UNK         0.0815 
    108 H108       25.6442   29.2293    3.7526 H         1 UNK         0.0815 
    109 H109       26.2101   29.1632    5.4204 H         1 UNK         0.0815 
    110 H110       29.1897   29.3417    1.8787 H         1 UNK         0.2987 
    111 H111       27.8989   31.1803    0.0756 H         1 UNK         0.0949 
    112 H112       30.4723   29.5375   -0.1649 H         1 UNK         0.0806 
    113 H113       28.8760   29.1573   -0.8226 H         1 UNK         0.0806 
    114 H114       29.7925   30.4961   -1.4725 H         1 UNK         0.0806 
    115 H115       30.6758   31.5037    2.2266 H         1 UNK         0.3010 
    116 H116       30.8627   34.3346    1.8172 H         1 UNK         0.0829 
    117 H117       32.2830   33.5739   -0.1339 H         1 UNK         0.0813 
    118 H118       33.2890   34.3014    1.1020 H         1 UNK         0.0813 
    119 H119       33.2275   32.5496    0.9431 H         1 UNK         0.0813 
    120 H120       32.5267   35.2004    3.3642 H         1 UNK         0.3038 
    121 H121       32.3701   34.0578    5.9380 H         1 UNK         0.0769 
    122 H122       34.0333   35.8285    6.5430 H         1 UNK         0.0811 
    123 H123       32.7475   36.4785    5.5414 H         1 UNK         0.0811 
    124 H124       34.3327   36.1474    4.8404 H         1 UNK         0.0811 
    125 H125       34.7209   33.5382    3.3981 H         1 UNK         0.3204 
    126 H126       36.8114   32.2798    4.8399 H         1 UNK         0.0748 
    127 H127       37.4162   31.3581    2.5910 H         1 UNK         0.0771 
    128 H128       35.8642   31.8749    1.9471 H         1 UNK         0.0771 
    129 H129       37.0431   33.0699    2.4924 H         1 UNK         0.0771 
    130 H130       33.5901   31.0803    4.0390 H         1 UNK         0.2980 
    131 H131       34.2915   28.2816    4.5157 H         1 UNK         0.0545 
    132 H132       33.9068   30.9115    6.7078 H         1 UNK         0.3459 
    133 H133       33.4440   29.9173    8.0669 H         1 UNK         0.3459 
    134 H134       31.5466   29.5761    4.1864 H         1 UNK         0.0616 
    135 H135       31.8383   27.8770    4.3116 H         1 UNK         0.0616 
    136 H136       33.8581   27.2457    0.8643 H         1 UNK         0.0634 
    137 H137       34.4212   27.3137    2.5029 H         1 UNK         0.0634 
@<TRIPOS>BOND
     1    1    2 1    
     2    1   72 1    
     3    1   73 1    
     4    1   74 1    
     5    2    3 2    
     6    2    4 am   BACKBONE|DICT|INTERRES
     7    4    5 1    
     8    4   75 1    
     9    5    6 1    
    10    5   35 1    
    11    5   76 1    
    12    6    7 1    
    13    6   77 1    
    14    6   78 1    
    15    7    8 1    
    16    8    9 1    
    17    8   79 1    
    18    8   80 1    
    19    9   10 ar   
    20    9   14 ar   
    21   10   11 ar   
    22   10   81 1    
    23   11   12 ar   
    24   11   71 1    
    25   12   13 ar   
    26   12   82 1    
    27   13   14 ar   
    28   13   15 1    
    29   14   83 1    
    30   15   16 1    
    31   15   84 1    
    32   15   85 1    
    33   16   17 1    
    34   17   18 1    
    35   17   86 1    
    36   17   87 1    
    37   18   19 1    
    38   18   37 1    
    39   18   88 1    
    40   19   20 am   BACKBONE|DICT|INTERRES
    41   19   89 1    
    42   20   21 2    
    43   20   22 1    
    44   22   23 1    
    45   22   24 1    
    46   22   90 1    
    47   23   91 1    
    48   23   92 1    
    49   23   93 1    
    50   24   25 am   BACKBONE|DICT|INTERRES
    51   24   94 1    
    52   25   26 2    
    53   25   27 1    
    54   27   28 1    
    55   27   29 1    
    56   27   95 1    
    57   28   96 1    
    58   28   97 1    
    59   28   98 1    
    60   29   30 am   BACKBONE|DICT|INTERRES
    61   29   99 1    
    62   30   31 2    
    63   30   32 1    
    64   32   33 1    
    65   32   34 1    
    66   32  100 1    
    67   33  101 1    
    68   33  102 1    
    69   33  103 1    
    70   34   35 am   BACKBONE|DICT|INTERRES
    71   34  104 1    
    72   35   36 2    
    73   37   38 2    
    74   37   39 am   BACKBONE|DICT|INTERRES
    75   39   40 1    
    76   39  105 1    
    77   40   41 1    
    78   40   42 1    
    79   40  106 1    
    80   41  107 1    
    81   41  108 1    
    82   41  109 1    
    83   42   43 2    
    84   42   44 am   BACKBONE|DICT|INTERRES
    85   44   45 1    
    86   44  110 1    
    87   45   46 1    
    88   45   47 1    
    89   45  111 1    
    90   46  112 1    
    91   46  113 1    
    92   46  114 1    
    93   47   48 2    
    94   47   49 am   BACKBONE|DICT|INTERRES
    95   49   50 1    
    96   49  115 1    
    97   50   51 1    
    98   50   52 1    
    99   50  116 1    
   100   51  117 1    
   101   51  118 1    
   102   51  119 1    
   103   52   53 2    
   104   52   54 am   BACKBONE|DICT|INTERRES
   105   54   55 1    
   106   54  120 1    
   107   55   56 1    
   108   55   57 1    
   109   55  121 1    
   110   56  122 1    
   111   56  123 1    
   112   56  124 1    
   113   57   58 2    
   114   57   59 am   BACKBONE|DICT|INTERRES
   115   59   60 1    
   116   59  125 1    
   117   60   61 1    
   118   60   62 1    
   119   60  126 1    
   120   61  127 1    
   121   61  128 1    
   122   61  129 1    
   123   62   63 2    
   124   62   64 am   BACKBONE|DICT|INTERRES
   125   64   65 1    
   126   64  130 1    
   127   65   66 1    
   128   65   69 1    
   129   65  131 1    
   130   66   67 am   BACKBONE|DICT|INTERRES
   131   66   68 2    
   132   67  132 1    
   133   67  133 1    
   134   69   70 1    
   135   69  134 1    
   136   69  135 1    
   137   70   71 1    
   138   71  136 1    
   139   71  137 1    
@<TRIPOS>SUBSTRUCTURE
     1 UNK         1 GROUP             0       ****    0 ROOT    
