@<TRIPOS>MOLECULE
3R136
137   139    1
SMALL
USER_CHARGES


@<TRIPOS>ATOM
      1 CA         27.4317   22.4056   -2.6870 C.3       0 UNK        -0.1979 
      2 C          28.7307   23.1960   -2.7439 C.2       0 UNK         0.4864 
      3 O          29.3875   23.2223   -3.7854 O.2       0 UNK        -0.5359 
      4 N          29.1006   23.8363   -1.6297 N.am      1 UNK        -0.4318 
      5 CA         30.2513   24.7308   -1.5055 C.3       1 UNK         0.0824 
      6 C6         30.7618   24.7595   -0.0440 C.3       12 UNK        -0.0944 
      7 S7         32.4749   25.3623    0.1229 S.3       12 UNK        -0.2672 
      8 C8         33.2078   24.0970    1.2130 C.3       12 UNK         0.0333 
      9 C9         32.6326   24.1556    2.6230 C.ar      12 UNK        -0.0807 
     10 C10        33.1745   25.0311    3.5689 C.ar      12 UNK        -0.0894 
     11 C11        32.6492   25.0926    4.8638 C.ar      12 UNK        -0.0804 
     12 C12        31.5646   24.2807    5.2070 C.ar      12 UNK        -0.0824 
     13 C13        31.0122   23.4029    4.2696 C.ar      12 UNK        -0.0762 
     14 C14        31.5632   23.3311    2.9872 C.ar      12 UNK        -0.0782 
     15 C15        29.8268   22.5236    4.6425 C.3       12 UNK         0.0230 
     16 S16        28.3307   22.9305    3.6835 S.3       12 UNK        -0.2608 
     17 C17        27.9108   24.5997    4.2982 C.3       12 UNK        -0.0989 
     18 CA         27.5425   25.5867    3.1568 C.3       5 UNK         0.0716 
     19 N          26.3869   25.1090    2.3914 N.am      5 UNK        -0.4135 
     20 C          26.4048   24.7886    1.0946 C.2       4 UNK         0.5031 
     21 O          27.4142   24.8054    0.3884 O.2       4 UNK        -0.5229 
     22 CA         25.0568   24.4571    0.4303 C.3       4 UNK         0.0329 
     23 CB         23.9727   23.9245    1.3960 C.3       4 UNK        -0.2001 
     24 N          24.6067   25.6307   -0.3250 N.am      4 UNK        -0.4303 
     25 C          24.3265   26.8389    0.1880 C.2       3 UNK         0.5044 
     26 O          24.1443   27.0529    1.3880 O.2       3 UNK        -0.5152 
     27 CA         24.4022   28.0123   -0.8081 C.3       3 UNK         0.0319 
     28 CB         24.0836   29.3739   -0.1560 C.3       3 UNK        -0.2001 
     29 N          25.7132   28.0519   -1.4793 N.am      3 UNK        -0.4354 
     30 C          26.9185   28.0807   -0.8855 C.2       2 UNK         0.4964 
     31 O          27.0956   28.1694    0.3322 O.2       2 UNK        -0.5047 
     32 CA         28.1387   27.9424   -1.7987 C.3       2 UNK         0.0288 
     33 CB         29.0856   29.1481   -1.6405 C.3       2 UNK        -0.2113 
     34 N          28.7903   26.6866   -1.4352 N.am      2 UNK        -0.4145 
     35 C          29.8563   26.1269   -2.0229 C.2       1 UNK         0.5006 
     36 O          30.4766   26.6300   -2.9615 O.2       1 UNK        -0.5103 
     37 C          27.2908   27.0039    3.7246 C.2       5 UNK         0.5055 
     38 O          28.1559   27.5143    4.4368 O.2       5 UNK        -0.5220 
     39 N          26.1229   27.6157    3.4617 N.am      6 UNK        -0.4450 
     40 CA         25.6757   28.8386    4.1388 C.3       6 UNK         0.0367 
     41 CB         24.1568   29.0015    3.9668 C.3       6 UNK        -0.1929 
     42 C          26.4020   30.1190    3.6960 C.2       6 UNK         0.5070 
     43 O          26.4670   31.0625    4.4851 O.2       6 UNK        -0.5237 
     44 N          26.9223   30.1463    2.4631 N.am      7 UNK        -0.4739 
     45 CA         27.6283   31.2935    1.8836 C.3       7 UNK         0.0276 
     46 CB         26.8890   31.7448    0.6106 C.3       7 UNK        -0.1927 
     47 C          29.1073   30.9767    1.6039 C.2       7 UNK         0.5013 
     48 O          29.7606   31.7403    0.8910 O.2       7 UNK        -0.5193 
     49 N          29.6152   29.8614    2.1474 N.am      8 UNK        -0.4253 
     50 CA         30.9991   29.4155    1.9995 C.3       8 UNK         0.0242 
     51 CB         31.1135   27.9619    2.4822 C.3       8 UNK        -0.2000 
     52 C          31.9659   30.3455    2.7514 C.2       8 UNK         0.4948 
     53 O          31.9410   30.3935    3.9818 O.2       8 UNK        -0.5275 
     54 N          32.8022   31.0701    1.9969 N.am      9 UNK        -0.4246 
     55 CA         33.7805   32.0295    2.5225 C.3       9 UNK         0.0261 
     56 CB         34.2256   32.9620    1.3834 C.3       9 UNK        -0.1959 
     57 C          35.0042   31.3725    3.1886 C.2       9 UNK         0.5033 
     58 O          35.7284   32.0527    3.9161 O.2       9 UNK        -0.5390 
     59 N          35.2263   30.0783    2.9214 N.am      10 UNK        -0.4215 
     60 CA         36.3408   29.2855    3.4455 C.3       10 UNK         0.0240 
     61 CB         36.4670   28.0000    2.6101 C.3       10 UNK        -0.1982 
     62 C          36.2268   28.9414    4.9429 C.2       10 UNK         0.4970 
     63 O          37.2370   28.5663    5.5399 O.2       10 UNK        -0.4916 
     64 N          35.0192   29.0336    5.5149 N.am      11 UNK        -0.4279 
     65 CA         34.7342   28.7090    6.9200 C.3       11 UNK         0.1003 
     66 C          35.3937   29.7000    7.9185 C.2       11 UNK         0.5709 
     67 N          35.7873   29.2269    9.0935 N.am      11 UNK        -0.7358 
     68 O          35.5122   30.8959    7.6578 O.2       11 UNK        -0.4999 
     69 C69        33.2093   28.5965    7.1880 C.3       12 UNK        -0.0954 
     70 S70        32.2705   27.5633    6.0095 S.3       12 UNK        -0.2268 
     71 C71        33.2504   26.0370    5.8919 C.3       12 UNK         0.0203 
     72 H72        26.6963   22.8426   -3.3619 H         1 UNK         0.0888 
     73 H73        27.6058   21.3742   -2.9925 H         1 UNK         0.0888 
     74 H74        27.0081   22.3928   -1.6829 H         1 UNK         0.0888 
     75 H75        28.4729   23.8471   -0.8292 H         1 UNK         0.3017 
     76 H76        31.0536   24.3483   -2.1407 H         1 UNK         0.0873 
     77 H77        30.1101   25.3421    0.6082 H         1 UNK         0.0745 
     78 H78        30.7248   23.7433    0.3457 H         1 UNK         0.0745 
     79 H79        33.0600   23.1074    0.7775 H         1 UNK         0.0705 
     80 H80        34.2871   24.2516    1.2516 H         1 UNK         0.0705 
     81 H81        34.0038   25.6674    3.2943 H         1 UNK         0.1334 
     82 H82        31.1498   24.3390    6.2041 H         1 UNK         0.1417 
     83 H83        31.1419   22.6398    2.2709 H         1 UNK         0.1562 
     84 H84        29.6001   22.5996    5.7072 H         1 UNK         0.0748 
     85 H85        30.0882   21.4804    4.4598 H         1 UNK         0.0748 
     86 H86        28.7543   24.9864    4.8727 H         1 UNK         0.0940 
     87 H87        27.0853   24.5039    5.0060 H         1 UNK         0.0940 
     88 H88        28.4121   25.6833    2.5033 H         1 UNK         0.0703 
     89 H89        25.5046   25.0793    2.8810 H         1 UNK         0.3081 
     90 H90        25.2565   23.6718   -0.3000 H         1 UNK         0.0719 
     91 H91        23.6665   24.6530    2.1462 H         1 UNK         0.0809 
     92 H92        23.0782   23.6303    0.8471 H         1 UNK         0.0809 
     93 H93        24.3272   23.0391    1.9257 H         1 UNK         0.0809 
     94 H94        24.7587   25.5788   -1.3224 H         1 UNK         0.2990 
     95 H95        23.6507   27.8252   -1.5767 H         1 UNK         0.0690 
     96 H96        24.1236   30.1828   -0.8852 H         1 UNK         0.0788 
     97 H97        24.7816   29.6123    0.6456 H         1 UNK         0.0788 
     98 H98        23.0825   29.3737    0.2765 H         1 UNK         0.0788 
     99 H99        25.6823   27.9766   -2.4869 H         1 UNK         0.2993 
    100 H100       27.8140   27.8780   -2.8389 H         1 UNK         0.0949 
    101 H101       29.8844   29.1358   -2.3812 H         1 UNK         0.0767 
    102 H102       28.5509   30.0903   -1.7648 H         1 UNK         0.0767 
    103 H103       29.5472   29.1586   -0.6553 H         1 UNK         0.0767 
    104 H104       28.3323   26.1748   -0.6836 H         1 UNK         0.3013 
    105 H105       25.4854   27.2283    2.7702 H         1 UNK         0.3121 
    106 H106       25.8726   28.7140    5.2061 H         1 UNK         0.0774 
    107 H107       23.8852   29.1892    2.9282 H         1 UNK         0.0815 
    108 H108       23.7875   29.8436    4.5535 H         1 UNK         0.0815 
    109 H109       23.6190   28.1138    4.2996 H         1 UNK         0.0815 
    110 H110       26.8515   29.3218    1.8690 H         1 UNK         0.2987 
    111 H111       27.6305   32.1351    2.5793 H         1 UNK         0.0949 
    112 H112       25.8529   32.0047    0.8275 H         1 UNK         0.0806 
    113 H113       26.8857   30.9674   -0.1522 H         1 UNK         0.0806 
    114 H114       27.3565   32.6283    0.1742 H         1 UNK         0.0806 
    115 H115       29.0212   29.3124    2.7536 H         1 UNK         0.3010 
    116 H116       31.2531   29.4310    0.9380 H         1 UNK         0.0829 
    117 H117       32.1419   27.6043    2.4221 H         1 UNK         0.0813 
    118 H118       30.5016   27.2967    1.8745 H         1 UNK         0.0813 
    119 H119       30.7887   27.8534    3.5169 H         1 UNK         0.0813 
    120 H120       32.7307   31.0036    0.9911 H         1 UNK         0.3038 
    121 H121       33.2861   32.6362    3.2845 H         1 UNK         0.0769 
    122 H122       34.7237   32.4140    0.5827 H         1 UNK         0.0811 
    123 H123       34.9260   33.7158    1.7464 H         1 UNK         0.0811 
    124 H124       33.3775   33.4938    0.9513 H         1 UNK         0.0811 
    125 H125       34.5834   29.6075    2.3022 H         1 UNK         0.3204 
    126 H126       37.2572   29.8659    3.3187 H         1 UNK         0.0748 
    127 H127       37.3006   27.3871    2.9562 H         1 UNK         0.0771 
    128 H128       35.5661   27.3890    2.6704 H         1 UNK         0.0771 
    129 H129       36.6501   28.2257    1.5592 H         1 UNK         0.0771 
    130 H130       34.2368   29.3696    4.9720 H         1 UNK         0.2980 
    131 H131       35.1797   27.7320    7.1140 H         1 UNK         0.0545 
    132 H132       36.2026   29.8586    9.7604 H         1 UNK         0.3459 
    133 H133       35.6832   28.2516    9.3264 H         1 UNK         0.3459 
    134 H134       32.7522   29.5879    7.1696 H         1 UNK         0.0616 
    135 H135       33.0326   28.2011    8.1898 H         1 UNK         0.0616 
    136 H136       33.2925   25.5545    6.8694 H         1 UNK         0.0634 
    137 H137       34.2774   26.2696    5.6105 H         1 UNK         0.0634 
@<TRIPOS>BOND
     1    1    2 1    
     2    1   72 1    
     3    1   73 1    
     4    1   74 1    
     5    2    3 2    
     6    2    4 am   BACKBONE|DICT|INTERRES
     7    4    5 1    
     8    4   75 1    
     9    5    6 1    
    10    5   35 1    
    11    5   76 1    
    12    6    7 1    
    13    6   77 1    
    14    6   78 1    
    15    7    8 1    
    16    8    9 1    
    17    8   79 1    
    18    8   80 1    
    19    9   10 ar   
    20    9   14 ar   
    21   10   11 ar   
    22   10   81 1    
    23   11   12 ar   
    24   11   71 1    
    25   12   13 ar   
    26   12   82 1    
    27   13   14 ar   
    28   13   15 1    
    29   14   83 1    
    30   15   16 1    
    31   15   84 1    
    32   15   85 1    
    33   16   17 1    
    34   17   18 1    
    35   17   86 1    
    36   17   87 1    
    37   18   19 1    
    38   18   37 1    
    39   18   88 1    
    40   19   20 am   BACKBONE|DICT|INTERRES
    41   19   89 1    
    42   20   21 2    
    43   20   22 1    
    44   22   23 1    
    45   22   24 1    
    46   22   90 1    
    47   23   91 1    
    48   23   92 1    
    49   23   93 1    
    50   24   25 am   BACKBONE|DICT|INTERRES
    51   24   94 1    
    52   25   26 2    
    53   25   27 1    
    54   27   28 1    
    55   27   29 1    
    56   27   95 1    
    57   28   96 1    
    58   28   97 1    
    59   28   98 1    
    60   29   30 am   BACKBONE|DICT|INTERRES
    61   29   99 1    
    62   30   31 2    
    63   30   32 1    
    64   32   33 1    
    65   32   34 1    
    66   32  100 1    
    67   33  101 1    
    68   33  102 1    
    69   33  103 1    
    70   34   35 am   BACKBONE|DICT|INTERRES
    71   34  104 1    
    72   35   36 2    
    73   37   38 2    
    74   37   39 am   BACKBONE|DICT|INTERRES
    75   39   40 1    
    76   39  105 1    
    77   40   41 1    
    78   40   42 1    
    79   40  106 1    
    80   41  107 1    
    81   41  108 1    
    82   41  109 1    
    83   42   43 2    
    84   42   44 am   BACKBONE|DICT|INTERRES
    85   44   45 1    
    86   44  110 1    
    87   45   46 1    
    88   45   47 1    
    89   45  111 1    
    90   46  112 1    
    91   46  113 1    
    92   46  114 1    
    93   47   48 2    
    94   47   49 am   BACKBONE|DICT|INTERRES
    95   49   50 1    
    96   49  115 1    
    97   50   51 1    
    98   50   52 1    
    99   50  116 1    
   100   51  117 1    
   101   51  118 1    
   102   51  119 1    
   103   52   53 2    
   104   52   54 am   BACKBONE|DICT|INTERRES
   105   54   55 1    
   106   54  120 1    
   107   55   56 1    
   108   55   57 1    
   109   55  121 1    
   110   56  122 1    
   111   56  123 1    
   112   56  124 1    
   113   57   58 2    
   114   57   59 am   BACKBONE|DICT|INTERRES
   115   59   60 1    
   116   59  125 1    
   117   60   61 1    
   118   60   62 1    
   119   60  126 1    
   120   61  127 1    
   121   61  128 1    
   122   61  129 1    
   123   62   63 2    
   124   62   64 am   BACKBONE|DICT|INTERRES
   125   64   65 1    
   126   64  130 1    
   127   65   66 1    
   128   65   69 1    
   129   65  131 1    
   130   66   67 am   BACKBONE|DICT|INTERRES
   131   66   68 2    
   132   67  132 1    
   133   67  133 1    
   134   69   70 1    
   135   69  134 1    
   136   69  135 1    
   137   70   71 1    
   138   71  136 1    
   139   71  137 1    
@<TRIPOS>SUBSTRUCTURE
     1 UNK         1 GROUP             0       ****    0 ROOT    
