@<TRIPOS>MOLECULE
3R136
137   139    1
SMALL
USER_CHARGES


@<TRIPOS>ATOM
      1 CA         35.6867   25.5427    0.7752 C.3       0 UNK        -0.1979 
      2 C          34.5262   24.6080    1.0835 C.2       0 UNK         0.4864 
      3 O          34.5188   23.9733    2.1383 O.2       0 UNK        -0.5359 
      4 N          33.5549   24.5221    0.1693 N.am      1 UNK        -0.4318 
      5 CA         32.2977   23.7912    0.3047 C.3       1 UNK         0.0824 
      6 C6         32.4762   22.2510    0.3424 C.3       12 UNK        -0.0944 
      7 S7         30.9492   21.3671    0.8155 S.3       12 UNK        -0.2672 
      8 C8         31.1463   21.1749    2.6166 C.3       12 UNK         0.0333 
      9 C9         30.5204   22.3290    3.3884 C.ar      12 UNK        -0.0807 
     10 C10        31.3087   23.3870    3.8528 C.ar      12 UNK        -0.0894 
     11 C11        30.7342   24.4329    4.5840 C.ar      12 UNK        -0.0804 
     12 C12        29.3704   24.3894    4.8852 C.ar      12 UNK        -0.0824 
     13 C13        28.5676   23.3435    4.4225 C.ar      12 UNK        -0.0762 
     14 C14        29.1491   22.3198    3.6670 C.ar      12 UNK        -0.0782 
     15 C15        27.0836   23.2968    4.7695 C.3       12 UNK         0.0230 
     16 S16        26.0796   24.4091    3.7291 S.3       12 UNK        -0.2608 
     17 C17        26.3038   26.0222    4.5561 C.3       12 UNK        -0.0989 
     18 CA         27.2139   26.9757    3.7383 C.3       5 UNK         0.0716 
     19 N          26.6417   27.3857    2.4513 N.am      5 UNK        -0.4135 
     20 C          25.5270   28.0848    2.2025 C.2       4 UNK         0.5031 
     21 O          24.7937   28.5510    3.0760 O.2       4 UNK        -0.5229 
     22 CA         25.1785   28.3173    0.7225 C.3       4 UNK         0.0329 
     23 CB         25.9084   29.5563    0.1799 C.3       4 UNK        -0.2001 
     24 N          25.4803   27.1567   -0.1210 N.am      4 UNK        -0.4303 
     25 C          24.8053   25.9983   -0.0756 C.2       3 UNK         0.5044 
     26 O          23.8219   25.8121    0.6425 O.2       3 UNK        -0.5152 
     27 CA         25.2744   24.8548   -0.9965 C.3       3 UNK         0.0319 
     28 CB         24.3178   24.7043   -2.1914 C.3       3 UNK        -0.2001 
     29 N          26.6464   24.9812   -1.5015 N.am      3 UNK        -0.4354 
     30 C          27.7515   24.8922   -0.7503 C.2       2 UNK         0.4964 
     31 O          27.7411   24.7758    0.4774 O.2       2 UNK        -0.5047 
     32 CA         29.0883   24.9266   -1.5025 C.3       2 UNK         0.0288 
     33 CB         29.3496   26.2992   -2.1586 C.3       2 UNK        -0.2113 
     34 N          30.1435   24.5755   -0.5567 N.am      2 UNK        -0.4145 
     35 C          31.4030   24.2483   -0.8581 C.2       1 UNK         0.5006 
     36 O          31.8714   24.2811   -1.9997 O.2       1 UNK        -0.5103 
     37 C          27.7212   28.1486    4.6033 C.2       5 UNK         0.5055 
     38 O          28.8553   28.0966    5.0767 O.2       5 UNK        -0.5220 
     39 N          26.8837   29.1690    4.8170 N.am      6 UNK        -0.4450 
     40 CA         27.1555   30.3119    5.6926 C.3       6 UNK         0.0367 
     41 CB         25.8153   30.8618    6.2085 C.3       6 UNK        -0.1929 
     42 C          27.9680   31.4346    5.0230 C.2       6 UNK         0.5070 
     43 O          28.4369   32.3316    5.7262 O.2       6 UNK        -0.5237 
     44 N          28.0981   31.4053    3.6899 N.am      7 UNK        -0.4739 
     45 CA         28.7439   32.4459    2.8845 C.3       7 UNK         0.0276 
     46 CB         28.2099   32.3731    1.4432 C.3       7 UNK        -0.1927 
     47 C          30.2839   32.4061    2.9702 C.2       7 UNK         0.5013 
     48 O          30.9532   32.0499    1.9970 O.2       7 UNK        -0.5193 
     49 N          30.8014   32.8015    4.1418 N.am      8 UNK        -0.4253 
     50 CA         32.2149   32.9766    4.5000 C.3       8 UNK         0.0242 
     51 CB         32.8507   34.0908    3.6363 C.3       8 UNK        -0.2000 
     52 C          33.0231   31.6638    4.4739 C.2       8 UNK         0.4948 
     53 O          32.4441   30.5770    4.4414 O.2       8 UNK        -0.5275 
     54 N          34.3590   31.7831    4.4961 N.am      9 UNK        -0.4246 
     55 CA         35.3135   30.6657    4.4773 C.3       9 UNK         0.0261 
     56 CB         36.7303   31.2093    4.7249 C.3       9 UNK        -0.1959 
     57 C          35.2779   29.8225    3.1877 C.2       9 UNK         0.5033 
     58 O          35.7179   28.6728    3.2082 O.2       9 UNK        -0.5390 
     59 N          34.7489   30.3976    2.0992 N.am      10 UNK        -0.4215 
     60 CA         34.4587   29.7040    0.8436 C.3       10 UNK         0.0240 
     61 CB         34.2801   30.7488   -0.2704 C.3       10 UNK        -0.1982 
     62 C          33.2166   28.7957    0.9271 C.2       10 UNK         0.4970 
     63 O          33.0626   27.9319    0.0627 O.2       10 UNK        -0.4916 
     64 N          32.3595   29.0128    1.9372 N.am      11 UNK        -0.4279 
     65 CA         31.0935   28.3039    2.1819 C.3       11 UNK         0.1003 
     66 C          30.0049   28.5611    1.0973 C.2       11 UNK         0.5709 
     67 N          30.1096   29.6075    0.2889 N.am      11 UNK        -0.7358 
     68 O          29.0363   27.8149    0.9925 O.2       11 UNK        -0.4999 
     69 C69        31.2866   26.7885    2.4625 C.3       12 UNK        -0.0954 
     70 S70        32.5390   26.4121    3.7393 S.3       12 UNK        -0.2268 
     71 C71        31.5705   25.6156    5.0632 C.3       12 UNK         0.0203 
     72 H72        36.6221   24.9852    0.7395 H         1 UNK         0.0888 
     73 H73        35.5556   26.0541   -0.1784 H         1 UNK         0.0888 
     74 H74        35.7683   26.3010    1.5542 H         1 UNK         0.0888 
     75 H75        33.6155   25.0641   -0.6843 H         1 UNK         0.3017 
     76 H76        31.8410   24.1041    1.2430 H         1 UNK         0.0873 
     77 H77        32.8053   21.8798   -0.6301 H         1 UNK         0.0745 
     78 H78        33.2649   21.9694    1.0399 H         1 UNK         0.0745 
     79 H79        32.1999   21.0626    2.8764 H         1 UNK         0.0705 
     80 H80        30.6668   20.2420    2.9169 H         1 UNK         0.0705 
     81 H81        32.3684   23.4051    3.6358 H         1 UNK         0.1334 
     82 H82        28.9325   25.1804    5.4766 H         1 UNK         0.1417 
     83 H83        28.5375   21.5031    3.3078 H         1 UNK         0.1562 
     84 H84        26.9371   23.5337    5.8243 H         1 UNK         0.0748 
     85 H85        26.7058   22.2813    4.6412 H         1 UNK         0.0748 
     86 H86        26.7055   25.8563    5.5569 H         1 UNK         0.0940 
     87 H87        25.3199   26.4674    4.7119 H         1 UNK         0.0940 
     88 H88        28.1055   26.4144    3.4597 H         1 UNK         0.0703 
     89 H89        27.2157   27.1271    1.6549 H         1 UNK         0.3081 
     90 H90        24.1044   28.5070    0.6649 H         1 UNK         0.0719 
     91 H91        26.9894   29.4187    0.1718 H         1 UNK         0.0809 
     92 H92        25.5929   29.7879   -0.8374 H         1 UNK         0.0809 
     93 H93        25.6943   30.4340    0.7913 H         1 UNK         0.0809 
     94 H94        26.2765   27.2250   -0.7376 H         1 UNK         0.2990 
     95 H95        25.2258   23.9369   -0.4066 H         1 UNK         0.0690 
     96 H96        24.5722   23.8350   -2.7982 H         1 UNK         0.0788 
     97 H97        24.3366   25.5837   -2.8365 H         1 UNK         0.0788 
     98 H98        23.2887   24.5697   -1.8548 H         1 UNK         0.0788 
     99 H99        26.7471   25.0843   -2.5014 H         1 UNK         0.2993 
    100 H100       29.0543   24.1566   -2.2762 H         1 UNK         0.0949 
    101 H101       29.4422   27.0917   -1.4195 H         1 UNK         0.0767 
    102 H102       30.2662   26.2934   -2.7478 H         1 UNK         0.0767 
    103 H103       28.5424   26.5784   -2.8363 H         1 UNK         0.0767 
    104 H104       29.8061   24.4966    0.3968 H         1 UNK         0.3013 
    105 H105       25.9724   29.1285    4.3626 H         1 UNK         0.3121 
    106 H106       27.7331   29.9668    6.5531 H         1 UNK         0.0774 
    107 H107       25.9709   31.6970    6.8930 H         1 UNK         0.0815 
    108 H108       25.1861   31.2210    5.3931 H         1 UNK         0.0815 
    109 H109       25.2570   30.0999    6.7529 H         1 UNK         0.0815 
    110 H110       27.7089   30.6186    3.1928 H         1 UNK         0.2987 
    111 H111       28.4406   33.4192    3.2778 H         1 UNK         0.0949 
    112 H112       28.7256   33.0828    0.7947 H         1 UNK         0.0806 
    113 H113       28.3361   31.3831    1.0125 H         1 UNK         0.0806 
    114 H114       27.1481   32.6165    1.4053 H         1 UNK         0.0806 
    115 H115       30.1350   32.9496    4.8945 H         1 UNK         0.3010 
    116 H116       32.2184   33.3135    5.5377 H         1 UNK         0.0829 
    117 H117       32.2236   34.9825    3.6219 H         1 UNK         0.0813 
    118 H118       33.8216   34.4000    4.0241 H         1 UNK         0.0813 
    119 H119       32.9938   33.7725    2.6029 H         1 UNK         0.0813 
    120 H120       34.7566   32.7108    4.5369 H         1 UNK         0.3038 
    121 H121       35.0541   29.9978    5.3016 H         1 UNK         0.0769 
    122 H122       37.4606   30.3990    4.7475 H         1 UNK         0.0811 
    123 H123       36.7966   31.7271    5.6820 H         1 UNK         0.0811 
    124 H124       37.0396   31.9039    3.9428 H         1 UNK         0.0811 
    125 H125       34.4295   31.3521    2.1750 H         1 UNK         0.3204 
    126 H126       35.3118   29.0709    0.5901 H         1 UNK         0.0748 
    127 H127       34.0881   30.2670   -1.2303 H         1 UNK         0.0771 
    128 H128       33.4410   31.4161   -0.0674 H         1 UNK         0.0771 
    129 H129       35.1753   31.3594   -0.3900 H         1 UNK         0.0771 
    130 H130       32.5656   29.7340    2.6199 H         1 UNK         0.2980 
    131 H131       30.6896   28.7502    3.0906 H         1 UNK         0.0545 
    132 H132       30.8356   30.2913    0.4446 H         1 UNK         0.3459 
    133 H133       29.4143   29.7574   -0.4218 H         1 UNK         0.3459 
    134 H134       31.5911   26.2911    1.5446 H         1 UNK         0.0616 
    135 H135       30.3368   26.3368    2.7459 H         1 UNK         0.0616 
    136 H136       30.9398   26.3762    5.5254 H         1 UNK         0.0634 
    137 H137       32.2560   25.2710    5.8382 H         1 UNK         0.0634 
@<TRIPOS>BOND
     1    1    2 1    
     2    1   72 1    
     3    1   73 1    
     4    1   74 1    
     5    2    3 2    
     6    2    4 am   BACKBONE|DICT|INTERRES
     7    4    5 1    
     8    4   75 1    
     9    5    6 1    
    10    5   35 1    
    11    5   76 1    
    12    6    7 1    
    13    6   77 1    
    14    6   78 1    
    15    7    8 1    
    16    8    9 1    
    17    8   79 1    
    18    8   80 1    
    19    9   10 ar   
    20    9   14 ar   
    21   10   11 ar   
    22   10   81 1    
    23   11   12 ar   
    24   11   71 1    
    25   12   13 ar   
    26   12   82 1    
    27   13   14 ar   
    28   13   15 1    
    29   14   83 1    
    30   15   16 1    
    31   15   84 1    
    32   15   85 1    
    33   16   17 1    
    34   17   18 1    
    35   17   86 1    
    36   17   87 1    
    37   18   19 1    
    38   18   37 1    
    39   18   88 1    
    40   19   20 am   BACKBONE|DICT|INTERRES
    41   19   89 1    
    42   20   21 2    
    43   20   22 1    
    44   22   23 1    
    45   22   24 1    
    46   22   90 1    
    47   23   91 1    
    48   23   92 1    
    49   23   93 1    
    50   24   25 am   BACKBONE|DICT|INTERRES
    51   24   94 1    
    52   25   26 2    
    53   25   27 1    
    54   27   28 1    
    55   27   29 1    
    56   27   95 1    
    57   28   96 1    
    58   28   97 1    
    59   28   98 1    
    60   29   30 am   BACKBONE|DICT|INTERRES
    61   29   99 1    
    62   30   31 2    
    63   30   32 1    
    64   32   33 1    
    65   32   34 1    
    66   32  100 1    
    67   33  101 1    
    68   33  102 1    
    69   33  103 1    
    70   34   35 am   BACKBONE|DICT|INTERRES
    71   34  104 1    
    72   35   36 2    
    73   37   38 2    
    74   37   39 am   BACKBONE|DICT|INTERRES
    75   39   40 1    
    76   39  105 1    
    77   40   41 1    
    78   40   42 1    
    79   40  106 1    
    80   41  107 1    
    81   41  108 1    
    82   41  109 1    
    83   42   43 2    
    84   42   44 am   BACKBONE|DICT|INTERRES
    85   44   45 1    
    86   44  110 1    
    87   45   46 1    
    88   45   47 1    
    89   45  111 1    
    90   46  112 1    
    91   46  113 1    
    92   46  114 1    
    93   47   48 2    
    94   47   49 am   BACKBONE|DICT|INTERRES
    95   49   50 1    
    96   49  115 1    
    97   50   51 1    
    98   50   52 1    
    99   50  116 1    
   100   51  117 1    
   101   51  118 1    
   102   51  119 1    
   103   52   53 2    
   104   52   54 am   BACKBONE|DICT|INTERRES
   105   54   55 1    
   106   54  120 1    
   107   55   56 1    
   108   55   57 1    
   109   55  121 1    
   110   56  122 1    
   111   56  123 1    
   112   56  124 1    
   113   57   58 2    
   114   57   59 am   BACKBONE|DICT|INTERRES
   115   59   60 1    
   116   59  125 1    
   117   60   61 1    
   118   60   62 1    
   119   60  126 1    
   120   61  127 1    
   121   61  128 1    
   122   61  129 1    
   123   62   63 2    
   124   62   64 am   BACKBONE|DICT|INTERRES
   125   64   65 1    
   126   64  130 1    
   127   65   66 1    
   128   65   69 1    
   129   65  131 1    
   130   66   67 am   BACKBONE|DICT|INTERRES
   131   66   68 2    
   132   67  132 1    
   133   67  133 1    
   134   69   70 1    
   135   69  134 1    
   136   69  135 1    
   137   70   71 1    
   138   71  136 1    
   139   71  137 1    
@<TRIPOS>SUBSTRUCTURE
     1 UNK         1 GROUP             0       ****    0 ROOT    
