@<TRIPOS>MOLECULE
3R136
137   139    1
SMALL
USER_CHARGES


@<TRIPOS>ATOM
      1 CA         26.8838   21.4342    4.8463 C.3       0 UNK        -0.1979 
      2 C          27.2051   20.6356    3.5913 C.2       0 UNK         0.4864 
      3 O          27.4746   19.4369    3.6790 O.2       0 UNK        -0.5359 
      4 N          27.1820   21.2931    2.4291 N.am      1 UNK        -0.4318 
      5 CA         27.4657   20.7297    1.1100 C.3       1 UNK         0.0824 
      6 C6         28.9736   20.4054    0.8963 C.3       12 UNK        -0.0944 
      7 S7         30.0516   21.8795    0.9260 S.3       12 UNK        -0.2672 
      8 C8         30.8350   21.7287    2.5596 C.3       12 UNK         0.0333 
      9 C9         31.2306   23.0954    3.0931 C.ar      12 UNK        -0.0807 
     10 C10        32.3008   23.7898    2.5236 C.ar      12 UNK        -0.0894 
     11 C11        32.6529   25.0571    2.9952 C.ar      12 UNK        -0.0804 
     12 C12        31.9372   25.6269    4.0526 C.ar      12 UNK        -0.0824 
     13 C13        30.8741   24.9348    4.6383 C.ar      12 UNK        -0.0762 
     14 C14        30.5233   23.6711    4.1525 C.ar      12 UNK        -0.0782 
     15 C15        30.1095   25.5345    5.8074 C.3       12 UNK         0.0230 
     16 S16        28.4433   26.0613    5.3074 S.3       12 UNK        -0.2608 
     17 C17        28.7206   27.7686    4.7159 C.3       12 UNK        -0.0989 
     18 CA         29.0101   27.9236    3.1936 C.3       5 UNK         0.0716 
     19 N          28.1992   27.0414    2.3446 N.am      5 UNK        -0.4135 
     20 C          26.8738   27.1037    2.1483 C.2       4 UNK         0.5031 
     21 O          26.1280   27.8724    2.7580 O.2       4 UNK        -0.5229 
     22 CA         26.2729   26.1666    1.0784 C.3       4 UNK         0.0329 
     23 CB         25.1842   26.8780    0.2476 C.3       4 UNK        -0.2001 
     24 N          27.2425   25.5228    0.1781 N.am      4 UNK        -0.4303 
     25 C          28.1321   26.1121   -0.6405 C.2       3 UNK         0.5044 
     26 O          28.3417   27.3256   -0.6608 O.2       3 UNK        -0.5152 
     27 CA         28.9572   25.2009   -1.5705 C.3       3 UNK         0.0319 
     28 CB         30.3948   25.0687   -1.0425 C.3       3 UNK        -0.2001 
     29 N          28.3768   23.8652   -1.7461 N.am      3 UNK        -0.4354 
     30 C          27.2603   23.6085   -2.4463 C.2       2 UNK         0.4964 
     31 O          26.6613   24.4595   -3.1046 O.2       2 UNK        -0.5047 
     32 CA         26.6922   22.1748   -2.3943 C.3       2 UNK         0.0288 
     33 CB         27.0488   21.4116   -3.6808 C.3       2 UNK        -0.2113 
     34 N          27.1124   21.3775   -1.2343 N.am      2 UNK        -0.4145 
     35 C          26.8942   21.6938    0.0508 C.2       1 UNK         0.5006 
     36 O          26.3111   22.7231    0.4089 O.2       1 UNK        -0.5103 
     37 C          28.9174   29.4031    2.7288 C.2       5 UNK         0.5055 
     38 O          28.9373   30.3122    3.5631 O.2       5 UNK        -0.5220 
     39 N          28.7592   29.6140    1.4111 N.am      6 UNK        -0.4450 
     40 CA         28.2954   30.8638    0.8020 C.3       6 UNK         0.0367 
     41 CB         28.0775   30.6411   -0.7030 C.3       6 UNK        -0.1929 
     42 C          29.1666   32.1095    1.0310 C.2       6 UNK         0.5070 
     43 O          28.6192   33.2132    1.0578 O.2       6 UNK        -0.5237 
     44 N          30.4861   31.9499    1.1971 N.am      7 UNK        -0.4739 
     45 CA         31.4231   33.0637    1.3826 C.3       7 UNK         0.0276 
     46 CB         32.7950   32.6938    0.7905 C.3       7 UNK        -0.1927 
     47 C          31.4980   33.4871    2.8609 C.2       7 UNK         0.5013 
     48 O          32.5741   33.4476    3.4578 O.2       7 UNK        -0.5193 
     49 N          30.3409   33.8798    3.4141 N.am      8 UNK        -0.4253 
     50 CA         30.1133   34.3482    4.7866 C.3       8 UNK         0.0242 
     51 CB         30.7968   35.7141    5.0137 C.3       8 UNK        -0.2000 
     52 C          30.5025   33.2966    5.8437 C.2       8 UNK         0.4948 
     53 O          31.3498   33.5640    6.6981 O.2       8 UNK        -0.5275 
     54 N          29.8680   32.1179    5.7525 N.am      9 UNK        -0.4246 
     55 CA         30.0759   30.9311    6.5932 C.3       9 UNK         0.0261 
     56 CB         29.7843   31.2195    8.0826 C.3       9 UNK        -0.1959 
     57 C          31.4490   30.2703    6.3551 C.2       9 UNK         0.5033 
     58 O          32.0544   29.7503    7.2944 O.2       9 UNK        -0.5390 
     59 N          31.9090   30.2925    5.0993 N.am      10 UNK        -0.4215 
     60 CA         33.1901   29.7680    4.6317 C.3       10 UNK         0.0240 
     61 CB         34.3412   30.6957    5.0793 C.3       10 UNK        -0.1982 
     62 C          33.1306   29.6140    3.1040 C.2       10 UNK         0.4970 
     63 O          32.0599   29.7834    2.5155 O.2       10 UNK        -0.4916 
     64 N          34.2770   29.3045    2.4908 N.am      11 UNK        -0.4279 
     65 CA         34.4703   29.2168    1.0361 C.3       11 UNK         0.1003 
     66 C          35.6550   30.1178    0.6047 C.2       11 UNK         0.5709 
     67 N          35.6373   30.6199   -0.6222 N.am      11 UNK        -0.7358 
     68 O          36.6006   30.3437    1.3589 O.2       11 UNK        -0.4999 
     69 C69        34.6949   27.7567    0.5651 C.3       12 UNK        -0.0954 
     70 S70        33.2444   26.7019    0.8778 S.3       12 UNK        -0.2268 
     71 C71        33.8042   25.8110    2.3574 C.3       12 UNK         0.0203 
     72 H72        25.9774   21.0506    5.3138 H         1 UNK         0.0888 
     73 H73        27.6997   21.3500    5.5637 H         1 UNK         0.0888 
     74 H74        26.7336   22.4919    4.6292 H         1 UNK         0.0888 
     75 H75        26.8939   22.2633    2.3876 H         1 UNK         0.3017 
     76 H76        26.8966   19.8021    1.0188 H         1 UNK         0.0873 
     77 H77        29.3130   19.6895    1.6460 H         1 UNK         0.0745 
     78 H78        29.1244   19.8981   -0.0576 H         1 UNK         0.0745 
     79 H79        30.1547   21.2362    3.2554 H         1 UNK         0.0705 
     80 H80        31.7150   21.0888    2.4816 H         1 UNK         0.0705 
     81 H81        32.8468   23.3513    1.6992 H         1 UNK         0.1334 
     82 H82        32.2081   26.6071    4.4191 H         1 UNK         0.1417 
     83 H83        29.6940   23.1404    4.6001 H         1 UNK         0.1562 
     84 H84        30.6541   26.3676    6.2545 H         1 UNK         0.0748 
     85 H85        30.0149   24.7817    6.5914 H         1 UNK         0.0748 
     86 H86        29.5393   28.2020    5.2876 H         1 UNK         0.0940 
     87 H87        27.8280   28.3357    4.9881 H         1 UNK         0.0940 
     88 H88        30.0453   27.6251    3.0230 H         1 UNK         0.0703 
     89 H89        28.7157   26.3668    1.8003 H         1 UNK         0.3081 
     90 H90        25.7933   25.3557    1.6284 H         1 UNK         0.0719 
     91 H91        25.5854   27.7395   -0.2874 H         1 UNK         0.0809 
     92 H92        24.7426   26.2035   -0.4861 H         1 UNK         0.0809 
     93 H93        24.3734   27.2373    0.8825 H         1 UNK         0.0809 
     94 H94        27.1527   24.5125    0.1277 H         1 UNK         0.2990 
     95 H95        28.9979   25.6845   -2.5488 H         1 UNK         0.0690 
     96 H96        30.9993   24.4231   -1.6794 H         1 UNK         0.0788 
     97 H97        30.4228   24.6657   -0.0296 H         1 UNK         0.0788 
     98 H98        30.8852   26.0426   -1.0135 H         1 UNK         0.0788 
     99 H99        28.8163   23.1086   -1.2404 H         1 UNK         0.2993 
    100 H100       25.6054   22.2702   -2.3434 H         1 UNK         0.0949 
    101 H101       26.7220   21.9607   -4.5652 H         1 UNK         0.0767 
    102 H102       28.1247   21.2567   -3.7727 H         1 UNK         0.0767 
    103 H103       26.5635   20.4357   -3.7122 H         1 UNK         0.0767 
    104 H104       27.6083   20.5227   -1.4417 H         1 UNK         0.3013 
    105 H105       28.7618   28.8057    0.7971 H         1 UNK         0.3121 
    106 H106       27.3228   31.0823    1.2481 H         1 UNK         0.0774 
    107 H107       28.9974   30.3313   -1.2004 H         1 UNK         0.0815 
    108 H108       27.7317   31.5534   -1.1913 H         1 UNK         0.0815 
    109 H109       27.3235   29.8751   -0.8851 H         1 UNK         0.0815 
    110 H110       30.8641   31.0130    1.2928 H         1 UNK         0.2987 
    111 H111       31.0643   33.9307    0.8229 H         1 UNK         0.0949 
    112 H112       33.2824   31.9063    1.3601 H         1 UNK         0.0806 
    113 H113       32.7095   32.3613   -0.2440 H         1 UNK         0.0806 
    114 H114       33.4647   33.5545    0.8004 H         1 UNK         0.0806 
    115 H115       29.5213   33.8376    2.8160 H         1 UNK         0.3010 
    116 H116       29.0376   34.5018    4.8873 H         1 UNK         0.0829 
    117 H117       31.8828   35.6419    4.9455 H         1 UNK         0.0813 
    118 H118       30.4634   36.4511    4.2832 H         1 UNK         0.0813 
    119 H119       30.5599   36.1085    6.0027 H         1 UNK         0.0813 
    120 H120       29.2385   31.9698    4.9708 H         1 UNK         0.3038 
    121 H121       29.3266   30.2118    6.2673 H         1 UNK         0.0769 
    122 H122       30.5399   31.8660    8.5294 H         1 UNK         0.0811 
    123 H123       29.7711   30.2949    8.6609 H         1 UNK         0.0811 
    124 H124       28.8128   31.6959    8.2130 H         1 UNK         0.0811 
    125 H125       31.3230   30.6718    4.3638 H         1 UNK         0.3204 
    126 H126       33.3375   28.7747    5.0593 H         1 UNK         0.0748 
    127 H127       35.3164   30.2866    4.8146 H         1 UNK         0.0771 
    128 H128       34.2618   31.6814    4.6193 H         1 UNK         0.0771 
    129 H129       34.3452   30.8370    6.1601 H         1 UNK         0.0771 
    130 H130       35.1282   29.2467    3.0316 H         1 UNK         0.2980 
    131 H131       33.5831   29.6007    0.5285 H         1 UNK         0.0545 
    132 H132       36.4053   31.1991   -0.9234 H         1 UNK         0.3459 
    133 H133       34.8779   30.4273   -1.2564 H         1 UNK         0.3459 
    134 H134       34.8843   27.7288   -0.5094 H         1 UNK         0.0616 
    135 H135       35.5779   27.3246    1.0396 H         1 UNK         0.0616 
    136 H136       34.6028   25.1199    2.0837 H         1 UNK         0.0634 
    137 H137       34.2332   26.5138    3.0726 H         1 UNK         0.0634 
@<TRIPOS>BOND
     1    1    2 1    
     2    1   72 1    
     3    1   73 1    
     4    1   74 1    
     5    2    3 2    
     6    2    4 am   BACKBONE|DICT|INTERRES
     7    4    5 1    
     8    4   75 1    
     9    5    6 1    
    10    5   35 1    
    11    5   76 1    
    12    6    7 1    
    13    6   77 1    
    14    6   78 1    
    15    7    8 1    
    16    8    9 1    
    17    8   79 1    
    18    8   80 1    
    19    9   10 ar   
    20    9   14 ar   
    21   10   11 ar   
    22   10   81 1    
    23   11   12 ar   
    24   11   71 1    
    25   12   13 ar   
    26   12   82 1    
    27   13   14 ar   
    28   13   15 1    
    29   14   83 1    
    30   15   16 1    
    31   15   84 1    
    32   15   85 1    
    33   16   17 1    
    34   17   18 1    
    35   17   86 1    
    36   17   87 1    
    37   18   19 1    
    38   18   37 1    
    39   18   88 1    
    40   19   20 am   BACKBONE|DICT|INTERRES
    41   19   89 1    
    42   20   21 2    
    43   20   22 1    
    44   22   23 1    
    45   22   24 1    
    46   22   90 1    
    47   23   91 1    
    48   23   92 1    
    49   23   93 1    
    50   24   25 am   BACKBONE|DICT|INTERRES
    51   24   94 1    
    52   25   26 2    
    53   25   27 1    
    54   27   28 1    
    55   27   29 1    
    56   27   95 1    
    57   28   96 1    
    58   28   97 1    
    59   28   98 1    
    60   29   30 am   BACKBONE|DICT|INTERRES
    61   29   99 1    
    62   30   31 2    
    63   30   32 1    
    64   32   33 1    
    65   32   34 1    
    66   32  100 1    
    67   33  101 1    
    68   33  102 1    
    69   33  103 1    
    70   34   35 am   BACKBONE|DICT|INTERRES
    71   34  104 1    
    72   35   36 2    
    73   37   38 2    
    74   37   39 am   BACKBONE|DICT|INTERRES
    75   39   40 1    
    76   39  105 1    
    77   40   41 1    
    78   40   42 1    
    79   40  106 1    
    80   41  107 1    
    81   41  108 1    
    82   41  109 1    
    83   42   43 2    
    84   42   44 am   BACKBONE|DICT|INTERRES
    85   44   45 1    
    86   44  110 1    
    87   45   46 1    
    88   45   47 1    
    89   45  111 1    
    90   46  112 1    
    91   46  113 1    
    92   46  114 1    
    93   47   48 2    
    94   47   49 am   BACKBONE|DICT|INTERRES
    95   49   50 1    
    96   49  115 1    
    97   50   51 1    
    98   50   52 1    
    99   50  116 1    
   100   51  117 1    
   101   51  118 1    
   102   51  119 1    
   103   52   53 2    
   104   52   54 am   BACKBONE|DICT|INTERRES
   105   54   55 1    
   106   54  120 1    
   107   55   56 1    
   108   55   57 1    
   109   55  121 1    
   110   56  122 1    
   111   56  123 1    
   112   56  124 1    
   113   57   58 2    
   114   57   59 am   BACKBONE|DICT|INTERRES
   115   59   60 1    
   116   59  125 1    
   117   60   61 1    
   118   60   62 1    
   119   60  126 1    
   120   61  127 1    
   121   61  128 1    
   122   61  129 1    
   123   62   63 2    
   124   62   64 am   BACKBONE|DICT|INTERRES
   125   64   65 1    
   126   64  130 1    
   127   65   66 1    
   128   65   69 1    
   129   65  131 1    
   130   66   67 am   BACKBONE|DICT|INTERRES
   131   66   68 2    
   132   67  132 1    
   133   67  133 1    
   134   69   70 1    
   135   69  134 1    
   136   69  135 1    
   137   70   71 1    
   138   71  136 1    
   139   71  137 1    
@<TRIPOS>SUBSTRUCTURE
     1 UNK         1 GROUP             0       ****    0 ROOT    
