@<TRIPOS>MOLECULE
3R136
137   139    1
SMALL
USER_CHARGES


@<TRIPOS>ATOM
      1 CA         29.0303   26.0570    2.7493 C.3       0 UNK        -0.1979 
      2 C          28.6754   24.7865    1.9943 C.2       0 UNK         0.4864 
      3 O          28.1766   24.8753    0.8726 O.2       0 UNK        -0.5359 
      4 N          28.9084   23.6275    2.6317 N.am      1 UNK        -0.4318 
      5 CA         28.6633   22.2485    2.1780 C.3       1 UNK         0.0824 
      6 C6         29.8898   21.5764    1.4986 C.3       12 UNK        -0.0944 
      7 S7         30.4804   22.3156   -0.0636 S.3       12 UNK        -0.2672 
      8 C8         32.2342   22.6473    0.2891 C.3       12 UNK         0.0333 
      9 C9         32.4577   24.0920    0.7050 C.ar      12 UNK        -0.0807 
     10 C10        32.5039   24.4523    2.0555 C.ar      12 UNK        -0.0894 
     11 C11        32.7455   25.7798    2.4286 C.ar      12 UNK        -0.0804 
     12 C12        32.9467   26.7441    1.4343 C.ar      12 UNK        -0.0824 
     13 C13        32.8745   26.3995    0.0813 C.ar      12 UNK        -0.0762 
     14 C14        32.6383   25.0704   -0.2759 C.ar      12 UNK        -0.0782 
     15 C15        33.0415   27.4614   -0.9967 C.3       12 UNK         0.0230 
     16 S16        31.5003   27.7410   -1.9305 S.3       12 UNK        -0.2608 
     17 C17        30.3914   28.3434   -0.6152 C.3       12 UNK        -0.0989 
     18 CA         28.8985   28.3608   -1.0329 C.3       5 UNK         0.0716 
     19 N          28.3878   27.0230   -1.3245 N.am      5 UNK        -0.4135 
     20 C          27.9645   26.5813   -2.5141 C.2       4 UNK         0.5031 
     21 O          28.0903   27.1997   -3.5722 O.2       4 UNK        -0.5229 
     22 CA         27.2244   25.2326   -2.5092 C.3       4 UNK         0.0329 
     23 CB         28.2212   24.0667   -2.5720 C.3       4 UNK        -0.2001 
     24 N          26.3935   25.1058   -1.3101 N.am      4 UNK        -0.4303 
     25 C          25.2222   25.7342   -1.1418 C.2       3 UNK         0.5044 
     26 O          24.6324   26.3244   -2.0495 O.2       3 UNK        -0.5152 
     27 CA         24.6349   25.7408    0.2836 C.3       3 UNK         0.0319 
     28 CB         23.1358   26.1108    0.3183 C.3       3 UNK        -0.2001 
     29 N          24.8891   24.5095    1.0398 N.am      3 UNK        -0.4354 
     30 C          24.4471   23.2740    0.7611 C.2       2 UNK         0.4964 
     31 O          23.7696   22.9850   -0.2270 O.2       2 UNK        -0.5047 
     32 CA         24.8151   22.1918    1.7947 C.3       2 UNK         0.0288 
     33 CB         24.4317   20.7616    1.3524 C.3       2 UNK        -0.2113 
     34 N          26.2216   22.2699    2.2145 N.am      2 UNK        -0.4145 
     35 C          27.3084   22.0387    1.4597 C.2       1 UNK         0.5006 
     36 O          27.2656   21.6875    0.2793 O.2       1 UNK        -0.5103 
     37 C          28.0453   28.9403    0.1092 C.2       5 UNK         0.5055 
     38 O          27.3310   28.1989    0.7904 O.2       5 UNK        -0.5220 
     39 N          28.1686   30.2532    0.3354 N.am      6 UNK        -0.4450 
     40 CA         27.7120   30.9015    1.5653 C.3       6 UNK         0.0367 
     41 CB         27.6104   32.4175    1.3299 C.3       6 UNK        -0.1929 
     42 C          28.7040   30.6053    2.7016 C.2       6 UNK         0.5070 
     43 O          29.9033   30.4904    2.4406 O.2       6 UNK        -0.5237 
     44 N          28.2093   30.5533    3.9463 N.am      7 UNK        -0.4739 
     45 CA         29.0086   30.2843    5.1534 C.3       7 UNK         0.0276 
     46 CB         28.0766   30.1753    6.3700 C.3       7 UNK        -0.1927 
     47 C          30.1298   31.3092    5.4211 C.2       7 UNK         0.5013 
     48 O          31.1076   30.9852    6.0973 O.2       7 UNK        -0.5193 
     49 N          29.9834   32.5123    4.8483 N.am      8 UNK        -0.4253 
     50 CA         30.9845   33.5778    4.8195 C.3       8 UNK         0.0242 
     51 CB         30.3606   34.8332    4.1886 C.3       8 UNK        -0.2000 
     52 C          32.2852   33.1995    4.0855 C.2       8 UNK         0.4948 
     53 O          33.3134   33.8228    4.3533 O.2       8 UNK        -0.5275 
     54 N          32.2574   32.1785    3.2126 N.am      9 UNK        -0.4246 
     55 CA         33.4190   31.6431    2.4911 C.3       9 UNK         0.0261 
     56 CB         32.9278   30.8788    1.2480 C.3       9 UNK        -0.1959 
     57 C          34.3434   30.7860    3.3862 C.2       9 UNK         0.5033 
     58 O          34.7360   29.6866    2.9924 O.2       9 UNK        -0.5390 
     59 N          34.6788   31.3185    4.5701 N.am      10 UNK        -0.4215 
     60 CA         35.5586   30.7646    5.6051 C.3       10 UNK         0.0240 
     61 CB         37.0211   30.7441    5.1099 C.3       10 UNK        -0.1982 
     62 C          35.1019   29.4031    6.1701 C.2       10 UNK         0.4970 
     63 O          35.9504   28.5976    6.5594 O.2       10 UNK        -0.4916 
     64 N          33.7837   29.1661    6.2284 N.am      11 UNK        -0.4279 
     65 CA         33.2035   27.9195    6.7580 C.3       11 UNK         0.1003 
     66 C          33.1323   27.8550    8.3112 C.2       11 UNK         0.5709 
     67 N          33.3785   28.9396    9.0371 N.am      11 UNK        -0.7358 
     68 O          32.8600   26.7948    8.8695 O.2       11 UNK        -0.4999 
     69 C69        31.8266   27.5870    6.1255 C.3       12 UNK        -0.0954 
     70 S70        31.8156   27.6305    4.3027 S.3       12 UNK        -0.2268 
     71 C71        32.8156   26.1593    3.9040 C.3       12 UNK         0.0203 
     72 H72        29.7830   26.6196    2.1997 H         1 UNK         0.0888 
     73 H73        28.1496   26.6878    2.8633 H         1 UNK         0.0888 
     74 H74        29.4248   25.8459    3.7426 H         1 UNK         0.0888 
     75 H75        29.3055   23.6844    3.5586 H         1 UNK         0.3017 
     76 H76        28.5402   21.6944    3.1104 H         1 UNK         0.0873 
     77 H77        30.7117   21.5604    2.2148 H         1 UNK         0.0745 
     78 H78        29.6696   20.5261    1.2992 H         1 UNK         0.0745 
     79 H79        32.8097   22.4387   -0.6141 H         1 UNK         0.0705 
     80 H80        32.6170   21.9610    1.0455 H         1 UNK         0.0705 
     81 H81        32.3598   23.6953    2.8141 H         1 UNK         0.1334 
     82 H82        33.1460   27.7680    1.7199 H         1 UNK         0.1417 
     83 H83        32.5851   24.7998   -1.3219 H         1 UNK         0.1562 
     84 H84        33.8234   27.1485   -1.6899 H         1 UNK         0.0748 
     85 H85        33.3745   28.4061   -0.5655 H         1 UNK         0.0748 
     86 H86        30.7306   29.3423   -0.3348 H         1 UNK         0.0940 
     87 H87        30.5194   27.7221    0.2716 H         1 UNK         0.0940 
     88 H88        28.7738   29.0103   -1.9019 H         1 UNK         0.0703 
     89 H89        28.2012   26.4519   -0.5050 H         1 UNK         0.3081 
     90 H90        26.5841   25.1854   -3.3926 H         1 UNK         0.0719 
     91 H91        28.8069   24.1022   -3.4912 H         1 UNK         0.0809 
     92 H92        28.9216   24.0994   -1.7375 H         1 UNK         0.0809 
     93 H93        27.7122   23.1031   -2.5420 H         1 UNK         0.0809 
     94 H94        26.8478   24.7045   -0.4923 H         1 UNK         0.2990 
     95 H95        25.1720   26.5276    0.8151 H         1 UNK         0.0690 
     96 H96        22.7555   26.1333    1.3395 H         1 UNK         0.0788 
     97 H97        22.5307   25.4045   -0.2509 H         1 UNK         0.0788 
     98 H98        22.9673   27.1000   -0.1092 H         1 UNK         0.0788 
     99 H99        25.4765   24.6216    1.8537 H         1 UNK         0.2993 
    100 H100       24.2219   22.4193    2.6820 H         1 UNK         0.0949 
    101 H101       23.3570   20.6824    1.1841 H         1 UNK         0.0767 
    102 H102       24.9246   20.4746    0.4232 H         1 UNK         0.0767 
    103 H103       24.6945   20.0268    2.1133 H         1 UNK         0.0767 
    104 H104       26.3712   22.5605    3.1712 H         1 UNK         0.3013 
    105 H105       28.7990   30.7900   -0.2423 H         1 UNK         0.3121 
    106 H106       26.7261   30.5163    1.8351 H         1 UNK         0.0774 
    107 H107       26.9231   32.6465    0.5153 H         1 UNK         0.0815 
    108 H108       27.2370   32.9277    2.2187 H         1 UNK         0.0815 
    109 H109       28.5790   32.8560    1.0852 H         1 UNK         0.0815 
    110 H110       27.2152   30.6751    4.0811 H         1 UNK         0.2987 
    111 H111       29.4909   29.3172    5.0060 H         1 UNK         0.0949 
    112 H112       27.3434   29.3794    6.2392 H         1 UNK         0.0806 
    113 H113       28.6421   29.9454    7.2744 H         1 UNK         0.0806 
    114 H114       27.5372   31.1059    6.5504 H         1 UNK         0.0806 
    115 H115       29.1396   32.6710    4.3182 H         1 UNK         0.3010 
    116 H116       31.2518   33.8063    5.8534 H         1 UNK         0.0829 
    117 H117       30.0520   34.6562    3.1573 H         1 UNK         0.0813 
    118 H118       29.4877   35.1688    4.7491 H         1 UNK         0.0813 
    119 H119       31.0726   35.6599    4.1780 H         1 UNK         0.0813 
    120 H120       31.3837   31.6790    3.0682 H         1 UNK         0.3038 
    121 H121       34.0182   32.4856    2.1395 H         1 UNK         0.0769 
    122 H122       32.3551   29.9937    1.5259 H         1 UNK         0.0811 
    123 H123       33.7669   30.5487    0.6348 H         1 UNK         0.0811 
    124 H124       32.2934   31.5039    0.6197 H         1 UNK         0.0811 
    125 H125       34.2980   32.2428    4.7610 H         1 UNK         0.3204 
    126 H126       35.5081   31.4619    6.4425 H         1 UNK         0.0748 
    127 H127       37.7064   30.4722    5.9137 H         1 UNK         0.0771 
    128 H128       37.1628   30.0239    4.3032 H         1 UNK         0.0771 
    129 H129       37.3297   31.7231    4.7431 H         1 UNK         0.0771 
    130 H130       33.1242   29.8662    5.9135 H         1 UNK         0.2980 
    131 H131       33.8732   27.1053    6.4764 H         1 UNK         0.0545 
    132 H132       33.3347   28.8821   10.0422 H         1 UNK         0.3459 
    133 H133       33.5904   29.8160    8.5887 H         1 UNK         0.3459 
    134 H134       31.4873   26.5991    6.4419 H         1 UNK         0.0616 
    135 H135       31.0728   28.2897    6.4818 H         1 UNK         0.0616 
    136 H136       33.8561   26.3546    4.1662 H         1 UNK         0.0634 
    137 H137       32.4818   25.3282    4.5269 H         1 UNK         0.0634 
@<TRIPOS>BOND
     1    1    2 1    
     2    1   72 1    
     3    1   73 1    
     4    1   74 1    
     5    2    3 2    
     6    2    4 am   BACKBONE|DICT|INTERRES
     7    4    5 1    
     8    4   75 1    
     9    5    6 1    
    10    5   35 1    
    11    5   76 1    
    12    6    7 1    
    13    6   77 1    
    14    6   78 1    
    15    7    8 1    
    16    8    9 1    
    17    8   79 1    
    18    8   80 1    
    19    9   10 ar   
    20    9   14 ar   
    21   10   11 ar   
    22   10   81 1    
    23   11   12 ar   
    24   11   71 1    
    25   12   13 ar   
    26   12   82 1    
    27   13   14 ar   
    28   13   15 1    
    29   14   83 1    
    30   15   16 1    
    31   15   84 1    
    32   15   85 1    
    33   16   17 1    
    34   17   18 1    
    35   17   86 1    
    36   17   87 1    
    37   18   19 1    
    38   18   37 1    
    39   18   88 1    
    40   19   20 am   BACKBONE|DICT|INTERRES
    41   19   89 1    
    42   20   21 2    
    43   20   22 1    
    44   22   23 1    
    45   22   24 1    
    46   22   90 1    
    47   23   91 1    
    48   23   92 1    
    49   23   93 1    
    50   24   25 am   BACKBONE|DICT|INTERRES
    51   24   94 1    
    52   25   26 2    
    53   25   27 1    
    54   27   28 1    
    55   27   29 1    
    56   27   95 1    
    57   28   96 1    
    58   28   97 1    
    59   28   98 1    
    60   29   30 am   BACKBONE|DICT|INTERRES
    61   29   99 1    
    62   30   31 2    
    63   30   32 1    
    64   32   33 1    
    65   32   34 1    
    66   32  100 1    
    67   33  101 1    
    68   33  102 1    
    69   33  103 1    
    70   34   35 am   BACKBONE|DICT|INTERRES
    71   34  104 1    
    72   35   36 2    
    73   37   38 2    
    74   37   39 am   BACKBONE|DICT|INTERRES
    75   39   40 1    
    76   39  105 1    
    77   40   41 1    
    78   40   42 1    
    79   40  106 1    
    80   41  107 1    
    81   41  108 1    
    82   41  109 1    
    83   42   43 2    
    84   42   44 am   BACKBONE|DICT|INTERRES
    85   44   45 1    
    86   44  110 1    
    87   45   46 1    
    88   45   47 1    
    89   45  111 1    
    90   46  112 1    
    91   46  113 1    
    92   46  114 1    
    93   47   48 2    
    94   47   49 am   BACKBONE|DICT|INTERRES
    95   49   50 1    
    96   49  115 1    
    97   50   51 1    
    98   50   52 1    
    99   50  116 1    
   100   51  117 1    
   101   51  118 1    
   102   51  119 1    
   103   52   53 2    
   104   52   54 am   BACKBONE|DICT|INTERRES
   105   54   55 1    
   106   54  120 1    
   107   55   56 1    
   108   55   57 1    
   109   55  121 1    
   110   56  122 1    
   111   56  123 1    
   112   56  124 1    
   113   57   58 2    
   114   57   59 am   BACKBONE|DICT|INTERRES
   115   59   60 1    
   116   59  125 1    
   117   60   61 1    
   118   60   62 1    
   119   60  126 1    
   120   61  127 1    
   121   61  128 1    
   122   61  129 1    
   123   62   63 2    
   124   62   64 am   BACKBONE|DICT|INTERRES
   125   64   65 1    
   126   64  130 1    
   127   65   66 1    
   128   65   69 1    
   129   65  131 1    
   130   66   67 am   BACKBONE|DICT|INTERRES
   131   66   68 2    
   132   67  132 1    
   133   67  133 1    
   134   69   70 1    
   135   69  134 1    
   136   69  135 1    
   137   70   71 1    
   138   71  136 1    
   139   71  137 1    
@<TRIPOS>SUBSTRUCTURE
     1 UNK         1 GROUP             0       ****    0 ROOT    
