@<TRIPOS>MOLECULE
3R136
137   139    1
SMALL
USER_CHARGES


@<TRIPOS>ATOM
      1 CA         33.0378   25.0893   -4.0525 C.3       0 UNK        -0.1979 
      2 C          32.0872   25.7698   -3.0787 C.2       0 UNK         0.4864 
      3 O          31.7315   26.9300   -3.2846 O.2       0 UNK        -0.5359 
      4 N          31.6668   25.0504   -2.0281 N.am      1 UNK        -0.4318 
      5 CA         30.8025   25.5487   -0.9477 C.3       1 UNK         0.0824 
      6 C6         30.7563   24.5707    0.2554 C.3       12 UNK        -0.0944 
      7 S7         32.4089   24.2253    0.9372 S.3       12 UNK        -0.2672 
      8 C8         32.0562   22.8082    2.0219 C.3       12 UNK         0.0333 
      9 C9         31.7223   23.2390    3.4435 C.ar      12 UNK        -0.0807 
     10 C10        32.7525   23.6455    4.2963 C.ar      12 UNK        -0.0894 
     11 C11        32.4896   23.9644    5.6306 C.ar      12 UNK        -0.0804 
     12 C12        31.1812   23.8740    6.1115 C.ar      12 UNK        -0.0824 
     13 C13        30.1381   23.4680    5.2719 C.ar      12 UNK        -0.0762 
     14 C14        30.4123   23.1641    3.9323 C.ar      12 UNK        -0.0782 
     15 C15        28.7392   23.2717    5.8458 C.3       12 UNK         0.0230 
     16 S16        28.0750   24.7836    6.6179 S.3       12 UNK        -0.2608 
     17 C17        27.1543   25.5439    5.2416 C.3       12 UNK        -0.0989 
     18 CA         28.0213   26.4651    4.3450 C.3       5 UNK         0.0716 
     19 N          27.3811   26.7527    3.0547 N.am      5 UNK        -0.4135 
     20 C          26.2055   27.3645    2.8417 C.2       4 UNK         0.5031 
     21 O          25.4951   27.8306    3.7339 O.2       4 UNK        -0.5229 
     22 CA         25.7317   27.4530    1.3842 C.3       4 UNK         0.0329 
     23 CB         26.3609   28.6626    0.6771 C.3       4 UNK        -0.2001 
     24 N          26.0291   26.2331    0.6311 N.am      4 UNK        -0.4303 
     25 C          25.3264   25.0929    0.7313 C.2       3 UNK         0.5044 
     26 O          24.3689   24.9584    1.4950 O.2       3 UNK        -0.5152 
     27 CA         25.7582   23.8952   -0.1466 C.3       3 UNK         0.0319 
     28 CB         24.5532   23.0763   -0.6570 C.3       3 UNK        -0.2001 
     29 N          26.6567   24.2510   -1.2530 N.am      3 UNK        -0.4354 
     30 C          26.4088   25.0770   -2.2828 C.2       2 UNK         0.4964 
     31 O          25.3042   25.5697   -2.5156 O.2       2 UNK        -0.5047 
     32 CA         27.6122   25.4442   -3.1792 C.3       2 UNK         0.0288 
     33 CB         27.4860   26.8680   -3.7629 C.3       2 UNK        -0.2113 
     34 N          28.9255   25.2832   -2.5317 N.am      2 UNK        -0.4145 
     35 C          29.3628   25.8698   -1.4029 C.2       1 UNK         0.5006 
     36 O          28.6624   26.5948   -0.6936 O.2       1 UNK        -0.5103 
     37 C          28.5086   27.7380    5.0726 C.2       5 UNK         0.5055 
     38 O          29.7131   27.8973    5.2741 O.2       5 UNK        -0.5220 
     39 N          27.5789   28.6342    5.4176 N.am      6 UNK        -0.4450 
     40 CA         27.8303   29.9232    6.0562 C.3       6 UNK         0.0367 
     41 CB         26.7279   30.1827    7.0996 C.3       6 UNK        -0.1929 
     42 C          27.9026   31.0211    4.9824 C.2       6 UNK         0.5070 
     43 O          27.0368   31.8963    4.9263 O.2       6 UNK        -0.5237 
     44 N          28.9268   30.9380    4.1295 N.am      7 UNK        -0.4739 
     45 CA         29.2266   31.8908    3.0630 C.3       7 UNK         0.0276 
     46 CB         28.5315   31.4458    1.7656 C.3       7 UNK        -0.1927 
     47 C          30.7435   31.9515    2.8696 C.2       7 UNK         0.5013 
     48 O          31.4363   30.9970    3.2315 O.2       7 UNK        -0.5193 
     49 N          31.2345   33.0425    2.2667 N.am      8 UNK        -0.4253 
     50 CA         32.6608   33.2928    2.0116 C.3       8 UNK         0.0242 
     51 CB         32.8337   34.7118    1.4454 C.3       8 UNK        -0.2000 
     52 C          33.3375   32.2602    1.0891 C.2       8 UNK         0.4948 
     53 O          34.5448   32.0490    1.2044 O.2       8 UNK        -0.5275 
     54 N          32.5501   31.6221    0.2122 N.am      9 UNK        -0.4246 
     55 CA         32.9737   30.5057   -0.6380 C.3       9 UNK         0.0261 
     56 CB         31.9815   30.3724   -1.8061 C.3       9 UNK        -0.1959 
     57 C          33.0870   29.1664    0.1191 C.2       9 UNK         0.5033 
     58 O          33.6594   28.2223   -0.4264 O.2       9 UNK        -0.5390 
     59 N          32.5271   29.0977    1.3328 N.am      10 UNK        -0.4215 
     60 CA         32.4715   27.9214    2.1900 C.3       10 UNK         0.0240 
     61 CB         30.9921   27.5406    2.3831 C.3       10 UNK        -0.1982 
     62 C          33.2286   28.2358    3.4919 C.2       10 UNK         0.4970 
     63 O          34.4256   28.5215    3.4205 O.2       10 UNK        -0.4916 
     64 N          32.5448   28.1824    4.6415 N.am      11 UNK        -0.4279 
     65 CA         33.0977   28.4241    5.9829 C.3       11 UNK         0.1003 
     66 C          32.3716   29.5840    6.7248 C.2       11 UNK         0.5709 
     67 N          31.7466   30.5259    6.0294 N.am      11 UNK        -0.7358 
     68 O          32.3966   29.6600    7.9514 O.2       11 UNK        -0.4999 
     69 C69        33.1538   27.1114    6.8125 C.3       12 UNK        -0.0954 
     70 S70        34.3809   25.9384    6.1469 S.3       12 UNK        -0.2268 
     71 C71        33.6312   24.3365    6.5659 C.3       12 UNK         0.0203 
     72 H72        32.6015   25.0680   -5.0507 H         1 UNK         0.0888 
     73 H73        33.9775   25.6388   -4.1025 H         1 UNK         0.0888 
     74 H74        33.2605   24.0641   -3.7570 H         1 UNK         0.0888 
     75 H75        32.0159   24.1107   -1.9014 H         1 UNK         0.3017 
     76 H76        31.2376   26.4909   -0.6082 H         1 UNK         0.0873 
     77 H77        30.2981   23.6262   -0.0442 H         1 UNK         0.0745 
     78 H78        30.1391   24.9675    1.0635 H         1 UNK         0.0745 
     79 H79        31.2572   22.1968    1.6000 H         1 UNK         0.0705 
     80 H80        32.9387   22.1671    2.0460 H         1 UNK         0.0705 
     81 H81        33.7677   23.6936    3.9258 H         1 UNK         0.1334 
     82 H82        30.9745   24.0933    7.1503 H         1 UNK         0.1417 
     83 H83        29.6165   22.8270    3.2822 H         1 UNK         0.1562 
     84 H84        28.7916   22.4943    6.6094 H         1 UNK         0.0748 
     85 H85        28.0481   22.8995    5.0883 H         1 UNK         0.0748 
     86 H86        26.3091   26.0919    5.6618 H         1 UNK         0.0940 
     87 H87        26.7095   24.7493    4.6406 H         1 UNK         0.0940 
     88 H88        28.9180   25.9010    4.0858 H         1 UNK         0.0703 
     89 H89        27.8886   26.4390    2.2403 H         1 UNK         0.3081 
     90 H90        24.6489   27.5968    1.3931 H         1 UNK         0.0719 
     91 H91        26.0870   29.5890    1.1824 H         1 UNK         0.0809 
     92 H92        27.4496   28.6040    0.6603 H         1 UNK         0.0809 
     93 H93        26.0160   28.7424   -0.3540 H         1 UNK         0.0809 
     94 H94        26.8209   26.2732   -0.0039 H         1 UNK         0.2990 
     95 H95        26.3387   23.2456    0.5100 H         1 UNK         0.0690 
     96 H96        24.8762   22.2300   -1.2630 H         1 UNK         0.0788 
     97 H97        23.8766   23.6825   -1.2599 H         1 UNK         0.0788 
     98 H98        23.9723   22.6734    0.1736 H         1 UNK         0.0788 
     99 H99        27.5984   23.8957   -1.1714 H         1 UNK         0.2993 
    100 H100       27.5901   24.7399   -4.0122 H         1 UNK         0.0949 
    101 H101       27.4309   27.6220   -2.9766 H         1 UNK         0.0767 
    102 H102       28.3363   27.1116   -4.4001 H         1 UNK         0.0767 
    103 H103       26.5874   26.9668   -4.3732 H         1 UNK         0.0767 
    104 H104       29.5783   24.6842   -3.0179 H         1 UNK         0.3013 
    105 H105       26.6310   28.4630    5.0885 H         1 UNK         0.3121 
    106 H106       28.7892   29.9044    6.5793 H         1 UNK         0.0774 
    107 H107       26.8826   31.1390    7.6009 H         1 UNK         0.0815 
    108 H108       25.7367   30.2073    6.6450 H         1 UNK         0.0815 
    109 H109       26.7237   29.4108    7.8693 H         1 UNK         0.0815 
    110 H110       29.6211   30.2127    4.2630 H         1 UNK         0.2987 
    111 H111       28.8771   32.8857    3.3485 H         1 UNK         0.0949 
    112 H112       27.4496   31.4188    1.8924 H         1 UNK         0.0806 
    113 H113       28.7402   32.1344    0.9461 H         1 UNK         0.0806 
    114 H114       28.8607   30.4539    1.4538 H         1 UNK         0.0806 
    115 H115       30.5944   33.7737    1.9901 H         1 UNK         0.3010 
    116 H116       33.1758   33.2446    2.9736 H         1 UNK         0.0829 
    117 H117       32.3130   34.8343    0.4948 H         1 UNK         0.0813 
    118 H118       33.8870   34.9370    1.2710 H         1 UNK         0.0813 
    119 H119       32.4552   35.4650    2.1368 H         1 UNK         0.0813 
    120 H120       31.5749   31.8798    0.1721 H         1 UNK         0.3038 
    121 H121       33.9595   30.7343   -1.0489 H         1 UNK         0.0769 
    122 H122       31.9253   31.2917   -2.3892 H         1 UNK         0.0811 
    123 H123       30.9765   30.1295   -1.4581 H         1 UNK         0.0811 
    124 H124       32.2876   29.5772   -2.4877 H         1 UNK         0.0811 
    125 H125       32.1670   29.9461    1.7588 H         1 UNK         0.3204 
    126 H126       32.9851   27.0789    1.7237 H         1 UNK         0.0748 
    127 H127       30.8959   26.6499    3.0051 H         1 UNK         0.0771 
    128 H128       30.4249   28.3524    2.8371 H         1 UNK         0.0771 
    129 H129       30.5136   27.3243    1.4304 H         1 UNK         0.0771 
    130 H130       31.5468   27.9904    4.6330 H         1 UNK         0.2980 
    131 H131       34.1218   28.7888    5.8912 H         1 UNK         0.0545 
    132 H132       31.3086   31.2833    6.5262 H         1 UNK         0.3459 
    133 H133       31.7696   30.5286    5.0143 H         1 UNK         0.3459 
    134 H134       32.1675   26.6449    6.8456 H         1 UNK         0.0616 
    135 H135       33.4381   27.3071    7.8475 H         1 UNK         0.0616 
    136 H136       34.4014   23.5665    6.5043 H         1 UNK         0.0634 
    137 H137       33.3007   24.3543    7.6057 H         1 UNK         0.0634 
@<TRIPOS>BOND
     1    1    2 1    
     2    1   72 1    
     3    1   73 1    
     4    1   74 1    
     5    2    3 2    
     6    2    4 am   BACKBONE|DICT|INTERRES
     7    4    5 1    
     8    4   75 1    
     9    5    6 1    
    10    5   35 1    
    11    5   76 1    
    12    6    7 1    
    13    6   77 1    
    14    6   78 1    
    15    7    8 1    
    16    8    9 1    
    17    8   79 1    
    18    8   80 1    
    19    9   10 ar   
    20    9   14 ar   
    21   10   11 ar   
    22   10   81 1    
    23   11   12 ar   
    24   11   71 1    
    25   12   13 ar   
    26   12   82 1    
    27   13   14 ar   
    28   13   15 1    
    29   14   83 1    
    30   15   16 1    
    31   15   84 1    
    32   15   85 1    
    33   16   17 1    
    34   17   18 1    
    35   17   86 1    
    36   17   87 1    
    37   18   19 1    
    38   18   37 1    
    39   18   88 1    
    40   19   20 am   BACKBONE|DICT|INTERRES
    41   19   89 1    
    42   20   21 2    
    43   20   22 1    
    44   22   23 1    
    45   22   24 1    
    46   22   90 1    
    47   23   91 1    
    48   23   92 1    
    49   23   93 1    
    50   24   25 am   BACKBONE|DICT|INTERRES
    51   24   94 1    
    52   25   26 2    
    53   25   27 1    
    54   27   28 1    
    55   27   29 1    
    56   27   95 1    
    57   28   96 1    
    58   28   97 1    
    59   28   98 1    
    60   29   30 am   BACKBONE|DICT|INTERRES
    61   29   99 1    
    62   30   31 2    
    63   30   32 1    
    64   32   33 1    
    65   32   34 1    
    66   32  100 1    
    67   33  101 1    
    68   33  102 1    
    69   33  103 1    
    70   34   35 am   BACKBONE|DICT|INTERRES
    71   34  104 1    
    72   35   36 2    
    73   37   38 2    
    74   37   39 am   BACKBONE|DICT|INTERRES
    75   39   40 1    
    76   39  105 1    
    77   40   41 1    
    78   40   42 1    
    79   40  106 1    
    80   41  107 1    
    81   41  108 1    
    82   41  109 1    
    83   42   43 2    
    84   42   44 am   BACKBONE|DICT|INTERRES
    85   44   45 1    
    86   44  110 1    
    87   45   46 1    
    88   45   47 1    
    89   45  111 1    
    90   46  112 1    
    91   46  113 1    
    92   46  114 1    
    93   47   48 2    
    94   47   49 am   BACKBONE|DICT|INTERRES
    95   49   50 1    
    96   49  115 1    
    97   50   51 1    
    98   50   52 1    
    99   50  116 1    
   100   51  117 1    
   101   51  118 1    
   102   51  119 1    
   103   52   53 2    
   104   52   54 am   BACKBONE|DICT|INTERRES
   105   54   55 1    
   106   54  120 1    
   107   55   56 1    
   108   55   57 1    
   109   55  121 1    
   110   56  122 1    
   111   56  123 1    
   112   56  124 1    
   113   57   58 2    
   114   57   59 am   BACKBONE|DICT|INTERRES
   115   59   60 1    
   116   59  125 1    
   117   60   61 1    
   118   60   62 1    
   119   60  126 1    
   120   61  127 1    
   121   61  128 1    
   122   61  129 1    
   123   62   63 2    
   124   62   64 am   BACKBONE|DICT|INTERRES
   125   64   65 1    
   126   64  130 1    
   127   65   66 1    
   128   65   69 1    
   129   65  131 1    
   130   66   67 am   BACKBONE|DICT|INTERRES
   131   66   68 2    
   132   67  132 1    
   133   67  133 1    
   134   69   70 1    
   135   69  134 1    
   136   69  135 1    
   137   70   71 1    
   138   71  136 1    
   139   71  137 1    
@<TRIPOS>SUBSTRUCTURE
     1 UNK         1 GROUP             0       ****    0 ROOT    
