@<TRIPOS>MOLECULE
3R136
137   139    1
SMALL
USER_CHARGES


@<TRIPOS>ATOM
      1 CA         29.7452   24.4276   -4.0938 C.3       0 UNK        -0.1979 
      2 C          29.2387   24.2637   -2.6700 C.2       0 UNK         0.4864 
      3 O          28.4536   25.0891   -2.2022 O.2       0 UNK        -0.5359 
      4 N          29.6608   23.1946   -1.9807 N.am      1 UNK        -0.4318 
      5 CA         29.3738   22.8862   -0.5682 C.3       1 UNK         0.0824 
      6 C6         30.1589   21.6406   -0.0935 C.3       12 UNK        -0.0944 
      7 S7         31.9626   21.8983   -0.2006 S.3       12 UNK        -0.2672 
      8 C8         32.4679   21.7975    1.5457 C.3       12 UNK         0.0333 
      9 C9         32.0815   23.0348    2.3467 C.ar      12 UNK        -0.0807 
     10 C10        32.8968   24.1707    2.3200 C.ar      12 UNK        -0.0894 
     11 C11        32.5976   25.2801    3.1178 C.ar      12 UNK        -0.0804 
     12 C12        31.4617   25.2567    3.9326 C.ar      12 UNK        -0.0824 
     13 C13        30.6403   24.1259    3.9712 C.ar      12 UNK        -0.0762 
     14 C14        30.9514   23.0218    3.1706 C.ar      12 UNK        -0.0782 
     15 C15        29.4503   24.0625    4.9180 C.3       12 UNK         0.0230 
     16 S16        27.8839   24.3096    4.0309 S.3       12 UNK        -0.2608 
     17 C17        27.3621   25.9582    4.6095 C.3       12 UNK        -0.0989 
     18 CA         28.1799   27.1369    4.0230 C.3       5 UNK         0.0716 
     19 N          28.3756   27.0185    2.5752 N.am      5 UNK        -0.4135 
     20 C          29.0793   27.8636    1.8116 C.2       4 UNK         0.5031 
     21 O          29.6982   28.8312    2.2501 O.2       4 UNK        -0.5229 
     22 CA         29.0540   27.6389    0.2934 C.3       4 UNK         0.0329 
     23 CB         30.3267   26.8949   -0.1395 C.3       4 UNK        -0.2001 
     24 N          27.8617   26.9553   -0.2325 N.am      4 UNK        -0.4303 
     25 C          26.5837   27.3177   -0.0252 C.2       3 UNK         0.5044 
     26 O          26.2470   28.2094    0.7569 O.2       3 UNK        -0.5152 
     27 CA         25.4896   26.5796   -0.8094 C.3       3 UNK         0.0319 
     28 CB         25.2420   27.2829   -2.1536 C.3       3 UNK        -0.2001 
     29 N          25.8199   25.1734   -1.0553 N.am      3 UNK        -0.4354 
     30 C          25.0492   24.1312   -0.7064 C.2       2 UNK         0.4964 
     31 O          23.9691   24.2423   -0.1248 O.2       2 UNK        -0.5047 
     32 CA         25.5454   22.7169   -1.0740 C.3       2 UNK         0.0288 
     33 CB         24.8784   22.2359   -2.3732 C.3       2 UNK        -0.2113 
     34 N          26.9991   22.6304   -1.2241 N.am      2 UNK        -0.4145 
     35 C          27.8741   22.7548   -0.2164 C.2       1 UNK         0.5006 
     36 O          27.5331   22.7976    0.9648 O.2       1 UNK        -0.5103 
     37 C          27.5278   28.4738    4.4380 C.2       5 UNK         0.5055 
     38 O          27.8434   28.9853    5.5130 O.2       5 UNK        -0.5220 
     39 N          26.6374   29.0031    3.5868 N.am      6 UNK        -0.4450 
     40 CA         25.9525   30.2807    3.7805 C.3       6 UNK         0.0367 
     41 CB         24.4354   30.0620    3.6591 C.3       6 UNK        -0.1929 
     42 C          26.4201   31.3282    2.7606 C.2       6 UNK         0.5070 
     43 O          26.5276   32.5022    3.1144 O.2       6 UNK        -0.5237 
     44 N          26.6771   30.9026    1.5150 N.am      7 UNK        -0.4739 
     45 CA         27.0324   31.7821    0.3980 C.3       7 UNK         0.0276 
     46 CB         26.8151   31.0321   -0.9267 C.3       7 UNK        -0.1927 
     47 C          28.4604   32.3497    0.4673 C.2       7 UNK         0.5013 
     48 O          28.7131   33.3805   -0.1584 O.2       7 UNK        -0.5193 
     49 N          29.3619   31.6822    1.1992 N.am      8 UNK        -0.4253 
     50 CA         30.7560   32.0929    1.3654 C.3       8 UNK         0.0242 
     51 CB         31.6718   31.2013    0.5068 C.3       8 UNK        -0.2000 
     52 C          31.1681   32.0620    2.8410 C.2       8 UNK         0.4948 
     53 O          31.6443   33.0782    3.3496 O.2       8 UNK        -0.5275 
     54 N          30.9831   30.9029    3.4919 N.am      9 UNK        -0.4246 
     55 CA         31.4564   30.5550    4.8365 C.3       9 UNK         0.0261 
     56 CB         30.6841   31.3534    5.9111 C.3       9 UNK        -0.1959 
     57 C          32.9932   30.6738    4.9337 C.2       9 UNK         0.5033 
     58 O          33.6783   30.3654    3.9559 O.2       9 UNK        -0.5390 
     59 N          33.5087   31.0964    6.0981 N.am      10 UNK        -0.4215 
     60 CA         34.8961   31.4850    6.4154 C.3       10 UNK         0.0240 
     61 CB         35.2937   32.7360    5.6059 C.3       10 UNK        -0.1982 
     62 C          35.9892   30.4005    6.2942 C.2       10 UNK         0.4970 
     63 O          37.0456   30.5654    6.9067 O.2       10 UNK        -0.4916 
     64 N          35.7471   29.3434    5.5134 N.am      11 UNK        -0.4279 
     65 CA         36.6619   28.2276    5.2425 C.3       11 UNK         0.1003 
     66 C          37.1323   27.4465    6.5057 C.2       11 UNK         0.5709 
     67 N          38.2855   26.7946    6.4325 N.am      11 UNK        -0.7358 
     68 O          36.4572   27.3994    7.5334 O.2       11 UNK        -0.4999 
     69 C69        36.0849   27.2942    4.1428 C.3       12 UNK        -0.0954 
     70 S70        34.5804   26.3876    4.6450 S.3       12 UNK        -0.2268 
     71 C71        33.5402   26.4735    3.1544 C.3       12 UNK         0.0203 
     72 H72        28.9074   24.4388   -4.7904 H         1 UNK         0.0888 
     73 H73        30.2823   25.3706   -4.1914 H         1 UNK         0.0888 
     74 H74        30.4186   23.6211   -4.3830 H         1 UNK         0.0888 
     75 H75        30.3060   22.5562   -2.4248 H         1 UNK         0.3017 
     76 H76        29.7289   23.7361    0.0157 H         1 UNK         0.0873 
     77 H77        29.8961   21.3808    0.9332 H         1 UNK         0.0745 
     78 H78        29.8972   20.7700   -0.6979 H         1 UNK         0.0745 
     79 H79        32.0468   20.8974    1.9967 H         1 UNK         0.0705 
     80 H80        33.5508   21.6698    1.5842 H         1 UNK         0.0705 
     81 H81        33.7849   24.1756    1.7027 H         1 UNK         0.1334 
     82 H82        31.2481   26.1043    4.5682 H         1 UNK         0.1417 
     83 H83        30.3236   22.1421    3.2122 H         1 UNK         0.1562 
     84 H84        29.5549   24.7929    5.7217 H         1 UNK         0.0748 
     85 H85        29.4262   23.0854    5.4026 H         1 UNK         0.0748 
     86 H86        27.3973   25.9749    5.7009 H         1 UNK         0.0940 
     87 H87        26.3070   26.0602    4.3461 H         1 UNK         0.0940 
     88 H88        29.1722   27.1211    4.4746 H         1 UNK         0.0703 
     89 H89        27.9187   26.2354    2.1310 H         1 UNK         0.3081 
     90 H90        29.0764   28.6272   -0.1683 H         1 UNK         0.0719 
     91 H91        30.3772   25.8963    0.2928 H         1 UNK         0.0809 
     92 H92        30.3879   26.8026   -1.2236 H         1 UNK         0.0809 
     93 H93        31.2203   27.4296    0.1865 H         1 UNK         0.0809 
     94 H94        28.0487   26.2349   -0.9285 H         1 UNK         0.2990 
     95 H95        24.5764   26.6572   -0.2157 H         1 UNK         0.0690 
     96 H96        24.4101   26.8263   -2.6901 H         1 UNK         0.0788 
     97 H97        26.1205   27.2403   -2.7990 H         1 UNK         0.0788 
     98 H98        24.9936   28.3350   -2.0059 H         1 UNK         0.0788 
     99 H99        26.7018   24.9941   -1.5291 H         1 UNK         0.2993 
    100 H100       25.2467   22.0465   -0.2649 H         1 UNK         0.0949 
    101 H101       25.1609   21.2095   -2.6084 H         1 UNK         0.0767 
    102 H102       23.7912   22.2587   -2.2850 H         1 UNK         0.0767 
    103 H103       25.1497   22.8638   -3.2230 H         1 UNK         0.0767 
    104 H104       27.3614   22.5994   -2.1658 H         1 UNK         0.3013 
    105 H105       26.4648   28.5273    2.7062 H         1 UNK         0.3121 
    106 H106       26.1578   30.6794    4.7764 H         1 UNK         0.0774 
    107 H107       24.1606   29.6628    2.6817 H         1 UNK         0.0815 
    108 H108       23.8936   30.9991    3.7944 H         1 UNK         0.0815 
    109 H109       24.0750   29.3671    4.4177 H         1 UNK         0.0815 
    110 H110       26.5304   29.9223    1.2842 H         1 UNK         0.2987 
    111 H111       26.3500   32.6351    0.4149 H         1 UNK         0.0949 
    112 H112       27.4787   30.1730   -1.0205 H         1 UNK         0.0806 
    113 H113       25.7891   30.6748   -1.0169 H         1 UNK         0.0806 
    114 H114       27.0062   31.6841   -1.7801 H         1 UNK         0.0806 
    115 H115       29.0706   30.8490    1.6956 H         1 UNK         0.3010 
    116 H116       30.8869   33.1241    1.0298 H         1 UNK         0.0829 
    117 H117       31.5745   30.1461    0.7636 H         1 UNK         0.0813 
    118 H118       31.4435   31.3082   -0.5537 H         1 UNK         0.0813 
    119 H119       32.7193   31.4737    0.6433 H         1 UNK         0.0813 
    120 H120       30.5904   30.1191    2.9688 H         1 UNK         0.3038 
    121 H121       31.2212   29.4982    4.9724 H         1 UNK         0.0769 
    122 H122       30.8776   30.9680    6.9125 H         1 UNK         0.0811 
    123 H123       30.9454   32.4124    5.9017 H         1 UNK         0.0811 
    124 H124       29.6081   31.2792    5.7507 H         1 UNK         0.0811 
    125 H125       32.8491   31.2622    6.8458 H         1 UNK         0.3204 
    126 H126       34.8813   31.7705    7.4685 H         1 UNK         0.0748 
    127 H127       36.2794   33.0989    5.9007 H         1 UNK         0.0771 
    128 H128       35.3304   32.5300    4.5355 H         1 UNK         0.0771 
    129 H129       34.5884   33.5520    5.7647 H         1 UNK         0.0771 
    130 H130       34.8818   29.3513    4.9833 H         1 UNK         0.2980 
    131 H131       37.5579   28.6911    4.8252 H         1 UNK         0.0545 
    132 H132       38.8442   26.8139    5.5936 H         1 UNK         0.3459 
    133 H133       38.6037   26.2726    7.2340 H         1 UNK         0.3459 
    134 H134       35.8667   27.8823    3.2499 H         1 UNK         0.0616 
    135 H135       36.8338   26.5620    3.8366 H         1 UNK         0.0616 
    136 H136       34.1681   26.4840    2.2622 H         1 UNK         0.0634 
    137 H137       32.9755   27.4076    3.1536 H         1 UNK         0.0634 
@<TRIPOS>BOND
     1    1    2 1    
     2    1   72 1    
     3    1   73 1    
     4    1   74 1    
     5    2    3 2    
     6    2    4 am   BACKBONE|DICT|INTERRES
     7    4    5 1    
     8    4   75 1    
     9    5    6 1    
    10    5   35 1    
    11    5   76 1    
    12    6    7 1    
    13    6   77 1    
    14    6   78 1    
    15    7    8 1    
    16    8    9 1    
    17    8   79 1    
    18    8   80 1    
    19    9   10 ar   
    20    9   14 ar   
    21   10   11 ar   
    22   10   81 1    
    23   11   12 ar   
    24   11   71 1    
    25   12   13 ar   
    26   12   82 1    
    27   13   14 ar   
    28   13   15 1    
    29   14   83 1    
    30   15   16 1    
    31   15   84 1    
    32   15   85 1    
    33   16   17 1    
    34   17   18 1    
    35   17   86 1    
    36   17   87 1    
    37   18   19 1    
    38   18   37 1    
    39   18   88 1    
    40   19   20 am   BACKBONE|DICT|INTERRES
    41   19   89 1    
    42   20   21 2    
    43   20   22 1    
    44   22   23 1    
    45   22   24 1    
    46   22   90 1    
    47   23   91 1    
    48   23   92 1    
    49   23   93 1    
    50   24   25 am   BACKBONE|DICT|INTERRES
    51   24   94 1    
    52   25   26 2    
    53   25   27 1    
    54   27   28 1    
    55   27   29 1    
    56   27   95 1    
    57   28   96 1    
    58   28   97 1    
    59   28   98 1    
    60   29   30 am   BACKBONE|DICT|INTERRES
    61   29   99 1    
    62   30   31 2    
    63   30   32 1    
    64   32   33 1    
    65   32   34 1    
    66   32  100 1    
    67   33  101 1    
    68   33  102 1    
    69   33  103 1    
    70   34   35 am   BACKBONE|DICT|INTERRES
    71   34  104 1    
    72   35   36 2    
    73   37   38 2    
    74   37   39 am   BACKBONE|DICT|INTERRES
    75   39   40 1    
    76   39  105 1    
    77   40   41 1    
    78   40   42 1    
    79   40  106 1    
    80   41  107 1    
    81   41  108 1    
    82   41  109 1    
    83   42   43 2    
    84   42   44 am   BACKBONE|DICT|INTERRES
    85   44   45 1    
    86   44  110 1    
    87   45   46 1    
    88   45   47 1    
    89   45  111 1    
    90   46  112 1    
    91   46  113 1    
    92   46  114 1    
    93   47   48 2    
    94   47   49 am   BACKBONE|DICT|INTERRES
    95   49   50 1    
    96   49  115 1    
    97   50   51 1    
    98   50   52 1    
    99   50  116 1    
   100   51  117 1    
   101   51  118 1    
   102   51  119 1    
   103   52   53 2    
   104   52   54 am   BACKBONE|DICT|INTERRES
   105   54   55 1    
   106   54  120 1    
   107   55   56 1    
   108   55   57 1    
   109   55  121 1    
   110   56  122 1    
   111   56  123 1    
   112   56  124 1    
   113   57   58 2    
   114   57   59 am   BACKBONE|DICT|INTERRES
   115   59   60 1    
   116   59  125 1    
   117   60   61 1    
   118   60   62 1    
   119   60  126 1    
   120   61  127 1    
   121   61  128 1    
   122   61  129 1    
   123   62   63 2    
   124   62   64 am   BACKBONE|DICT|INTERRES
   125   64   65 1    
   126   64  130 1    
   127   65   66 1    
   128   65   69 1    
   129   65  131 1    
   130   66   67 am   BACKBONE|DICT|INTERRES
   131   66   68 2    
   132   67  132 1    
   133   67  133 1    
   134   69   70 1    
   135   69  134 1    
   136   69  135 1    
   137   70   71 1    
   138   71  136 1    
   139   71  137 1    
@<TRIPOS>SUBSTRUCTURE
     1 UNK         1 GROUP             0       ****    0 ROOT    
