@<TRIPOS>MOLECULE
3R136
137   139    1
SMALL
USER_CHARGES


@<TRIPOS>ATOM
      1 CA         25.9323   20.4705   -0.0026 C.3       0 UNK        -0.1979 
      2 C          26.8301   21.6505   -0.3443 C.2       0 UNK         0.4864 
      3 O          26.9417   22.0142   -1.5159 O.2       0 UNK        -0.5359 
      4 N          27.4624   22.2512    0.6683 N.am      1 UNK        -0.4318 
      5 CA         28.3321   23.4204    0.5485 C.3       1 UNK         0.0824 
      6 C6         29.7320   23.0999   -0.0442 C.3       12 UNK        -0.0944 
      7 S7         30.7352   21.9423    0.9529 S.3       12 UNK        -0.2672 
      8 C8         32.4300   22.4931    0.5688 C.3       12 UNK         0.0333 
      9 C9         32.7135   23.8699    1.1495 C.ar      12 UNK        -0.0807 
     10 C10        32.9418   24.0155    2.5196 C.ar      12 UNK        -0.0894 
     11 C11        33.1482   25.2812    3.0737 C.ar      12 UNK        -0.0804 
     12 C12        33.1151   26.4076    2.2432 C.ar      12 UNK        -0.0824 
     13 C13        32.9046   26.2755    0.8659 C.ar      12 UNK        -0.0762 
     14 C14        32.7265   24.9981    0.3244 C.ar      12 UNK        -0.0782 
     15 C15        32.8889   27.5147   -0.0271 C.3       12 UNK         0.0230 
     16 S16        31.5368   27.5236   -1.2580 S.3       12 UNK        -0.2608 
     17 C17        30.0773   27.5847   -0.1716 C.3       12 UNK        -0.0989 
     18 CA         28.7245   27.5943   -0.9304 C.3       5 UNK         0.0716 
     19 N          27.6206   27.2086   -0.0430 N.am      5 UNK        -0.4135 
     20 C          26.3872   26.8789   -0.4599 C.2       4 UNK         0.5031 
     21 O          26.0966   26.7485   -1.6501 O.2       4 UNK        -0.5229 
     22 CA         25.2878   26.6362    0.5964 C.3       4 UNK         0.0329 
     23 CB         24.6424   25.2504    0.4136 C.3       4 UNK        -0.2001 
     24 N          25.7723   26.7533    1.9737 N.am      4 UNK        -0.4303 
     25 C          25.7307   27.8695    2.7172 C.2       3 UNK         0.5044 
     26 O          25.2044   28.9190    2.3479 O.2       3 UNK        -0.5152 
     27 CA         26.4193   27.8221    4.0992 C.3       3 UNK         0.0319 
     28 CB         25.3934   27.5276    5.2045 C.3       3 UNK        -0.2001 
     29 N          27.5141   26.8479    4.1846 N.am      3 UNK        -0.4354 
     30 C          28.6040   26.8703    3.4059 C.2       2 UNK         0.4964 
     31 O          28.8167   27.7560    2.5798 O.2       2 UNK        -0.5047 
     32 CA         29.5657   25.6706    3.4775 C.3       2 UNK         0.0288 
     33 CB         29.4711   24.8573    4.7872 C.3       2 UNK        -0.2113 
     34 N          29.4236   24.7966    2.3029 N.am      2 UNK        -0.4145 
     35 C          28.3001   24.1935    1.8831 C.2       1 UNK         0.5006 
     36 O          27.2299   24.2615    2.4943 O.2       1 UNK        -0.5103 
     37 C          28.4486   28.9820   -1.5430 C.2       5 UNK         0.5055 
     38 O          27.7874   29.8066   -0.9084 O.2       5 UNK        -0.5220 
     39 N          29.0196   29.2487   -2.7257 N.am      6 UNK        -0.4450 
     40 CA         28.9582   30.5495   -3.4054 C.3       6 UNK         0.0367 
     41 CB         29.6148   30.4341   -4.7902 C.3       6 UNK        -0.1929 
     42 C          29.5993   31.6954   -2.5980 C.2       6 UNK         0.5070 
     43 O          29.1417   32.8341   -2.6931 O.2       6 UNK        -0.5237 
     44 N          30.6251   31.3678   -1.7997 N.am      7 UNK        -0.4739 
     45 CA         31.2689   32.2842   -0.8549 C.3       7 UNK         0.0276 
     46 CB         32.6990   31.7871   -0.5832 C.3       7 UNK        -0.1927 
     47 C          30.4977   32.4308    0.4716 C.2       7 UNK         0.5013 
     48 O          30.7680   33.3769    1.2113 O.2       7 UNK        -0.5193 
     49 N          29.5905   31.4834    0.7650 N.am      8 UNK        -0.4253 
     50 CA         28.7819   31.3439    1.9865 C.3       8 UNK         0.0242 
     51 CB         27.7162   32.4572    2.0522 C.3       8 UNK        -0.2000 
     52 C          29.5980   31.2313    3.2942 C.2       8 UNK         0.4948 
     53 O          29.0707   31.5292    4.3681 O.2       8 UNK        -0.5275 
     54 N          30.8684   30.8185    3.1912 N.am      9 UNK        -0.4246 
     55 CA         31.7898   30.6626    4.3138 C.3       9 UNK         0.0261 
     56 CB         33.2337   30.6569    3.7839 C.3       9 UNK        -0.1959 
     57 C          31.4864   29.3668    5.0749 C.2       9 UNK         0.5033 
     58 O          31.4282   28.3076    4.4541 O.2       9 UNK        -0.5390 
     59 N          31.3290   29.4630    6.4002 N.am      10 UNK        -0.4215 
     60 CA         31.0375   28.3230    7.2763 C.3       10 UNK         0.0240 
     61 CB         30.4204   28.8445    8.5850 C.3       10 UNK        -0.1982 
     62 C          32.2587   27.4310    7.5740 C.2       10 UNK         0.4970 
     63 O          32.0688   26.3147    8.0572 O.2       10 UNK        -0.4916 
     64 N          33.4729   27.9362    7.3079 N.am      11 UNK        -0.4279 
     65 CA         34.7722   27.2932    7.5871 C.3       11 UNK         0.1003 
     66 C          35.1054   27.1421    9.1051 C.2       11 UNK         0.5709 
     67 N          34.4322   27.8499   10.0050 N.am      11 UNK        -0.7358 
     68 O          36.0120   26.4005    9.4777 O.2       11 UNK        -0.4999 
     69 C69        34.9985   25.9735    6.7905 C.3       12 UNK        -0.0954 
     70 S70        34.9493   26.2007    4.9809 S.3       12 UNK        -0.2268 
     71 C71        33.3534   25.4271    4.5758 C.3       12 UNK         0.0203 
     72 H72        26.2719   19.5772   -0.5260 H         1 UNK         0.0888 
     73 H73        25.9294   20.2565    1.0661 H         1 UNK         0.0888 
     74 H74        24.9075   20.6776   -0.3097 H         1 UNK         0.0888 
     75 H75        27.2969   21.9499    1.6196 H         1 UNK         0.3017 
     76 H76        27.8492   24.0994   -0.1576 H         1 UNK         0.0873 
     77 H77        30.2750   24.0265   -0.2231 H         1 UNK         0.0745 
     78 H78        29.6134   22.6550   -1.0332 H         1 UNK         0.0745 
     79 H79        32.5780   22.4855   -0.5123 H         1 UNK         0.0705 
     80 H80        33.1385   21.7726    0.9802 H         1 UNK         0.0705 
     81 H81        32.9353   23.1408    3.1559 H         1 UNK         0.1334 
     82 H82        33.2524   27.3875    2.6793 H         1 UNK         0.1417 
     83 H83        32.5691   24.8858   -0.7399 H         1 UNK         0.1562 
     84 H84        33.8416   27.5740   -0.5546 H         1 UNK         0.0748 
     85 H85        32.8144   28.4195    0.5777 H         1 UNK         0.0748 
     86 H86        30.1675   28.4425    0.4976 H         1 UNK         0.0940 
     87 H87        30.1292   26.7039    0.4665 H         1 UNK         0.0940 
     88 H88        28.7679   26.8592   -1.7373 H         1 UNK         0.0703 
     89 H89        27.7789   27.3768    0.9452 H         1 UNK         0.3081 
     90 H90        24.5139   27.3862    0.4207 H         1 UNK         0.0719 
     91 H91        24.2019   25.1495   -0.5792 H         1 UNK         0.0809 
     92 H92        25.3663   24.4445    0.5295 H         1 UNK         0.0809 
     93 H93        23.8431   25.0876    1.1368 H         1 UNK         0.0809 
     94 H94        26.2262   25.9288    2.3588 H         1 UNK         0.2990 
     95 H95        26.8467   28.8107    4.2817 H         1 UNK         0.0690 
     96 H96        25.8483   27.5822    6.1938 H         1 UNK         0.0788 
     97 H97        24.9506   26.5372    5.0905 H         1 UNK         0.0788 
     98 H98        24.5790   28.2534    5.1839 H         1 UNK         0.0788 
     99 H99        27.3828   26.0606    4.8033 H         1 UNK         0.2993 
    100 H100       30.5644   26.0986    3.4264 H         1 UNK         0.0949 
    101 H101       28.5180   24.3382    4.8914 H         1 UNK         0.0767 
    102 H102       30.2591   24.1052    4.8301 H         1 UNK         0.0767 
    103 H103       29.5996   25.5012    5.6582 H         1 UNK         0.0767 
    104 H104       30.2676   24.6622    1.7623 H         1 UNK         0.3013 
    105 H105       29.5730   28.5291   -3.1703 H         1 UNK         0.3121 
    106 H106       27.9043   30.7997   -3.5451 H         1 UNK         0.0774 
    107 H107       29.5626   31.3830   -5.3262 H         1 UNK         0.0815 
    108 H108       30.6679   30.1591   -4.7174 H         1 UNK         0.0815 
    109 H109       29.1134   29.6884   -5.4074 H         1 UNK         0.0815 
    110 H110       30.9534   30.4123   -1.8093 H         1 UNK         0.2987 
    111 H111       31.3314   33.2766   -1.3074 H         1 UNK         0.0949 
    112 H112       33.2838   31.7410   -1.5021 H         1 UNK         0.0806 
    113 H113       33.2237   32.4583    0.0984 H         1 UNK         0.0806 
    114 H114       32.7051   30.7950   -0.1315 H         1 UNK         0.0806 
    115 H115       29.3742   30.8065    0.0436 H         1 UNK         0.3010 
    116 H116       28.2541   30.3937    1.8874 H         1 UNK         0.0829 
    117 H117       28.1665   33.4382    2.2060 H         1 UNK         0.0813 
    118 H118       27.0177   32.2850    2.8721 H         1 UNK         0.0813 
    119 H119       27.1294   32.4953    1.1343 H         1 UNK         0.0813 
    120 H120       31.2086   30.5433    2.2835 H         1 UNK         0.3038 
    121 H121       31.6722   31.5167    4.9844 H         1 UNK         0.0769 
    122 H122       33.9498   30.5582    4.6006 H         1 UNK         0.0811 
    123 H123       33.4666   31.5838    3.2592 H         1 UNK         0.0811 
    124 H124       33.4101   29.8294    3.0956 H         1 UNK         0.0811 
    125 H125       31.3811   30.3730    6.8363 H         1 UNK         0.3204 
    126 H126       30.2945   27.6931    6.7820 H         1 UNK         0.0748 
    127 H127       30.1597   28.0205    9.2509 H         1 UNK         0.0771 
    128 H128       31.1072   29.4962    9.1265 H         1 UNK         0.0771 
    129 H129       29.5044   29.4046    8.3951 H         1 UNK         0.0771 
    130 H130       33.5246   28.8643    6.9173 H         1 UNK         0.2980 
    131 H131       35.5172   28.0044    7.2292 H         1 UNK         0.0545 
    132 H132       34.6649   27.7531   10.9808 H         1 UNK         0.3459 
    133 H133       33.6972   28.4761    9.7206 H         1 UNK         0.3459 
    134 H134       34.2835   25.2082    7.0945 H         1 UNK         0.0616 
    135 H135       35.9833   25.5604    7.0149 H         1 UNK         0.0616 
    136 H136       33.3005   24.4519    5.0620 H         1 UNK         0.0634 
    137 H137       32.5438   26.0223    4.9953 H         1 UNK         0.0634 
@<TRIPOS>BOND
     1    1    2 1    
     2    1   72 1    
     3    1   73 1    
     4    1   74 1    
     5    2    3 2    
     6    2    4 am   BACKBONE|DICT|INTERRES
     7    4    5 1    
     8    4   75 1    
     9    5    6 1    
    10    5   35 1    
    11    5   76 1    
    12    6    7 1    
    13    6   77 1    
    14    6   78 1    
    15    7    8 1    
    16    8    9 1    
    17    8   79 1    
    18    8   80 1    
    19    9   10 ar   
    20    9   14 ar   
    21   10   11 ar   
    22   10   81 1    
    23   11   12 ar   
    24   11   71 1    
    25   12   13 ar   
    26   12   82 1    
    27   13   14 ar   
    28   13   15 1    
    29   14   83 1    
    30   15   16 1    
    31   15   84 1    
    32   15   85 1    
    33   16   17 1    
    34   17   18 1    
    35   17   86 1    
    36   17   87 1    
    37   18   19 1    
    38   18   37 1    
    39   18   88 1    
    40   19   20 am   BACKBONE|DICT|INTERRES
    41   19   89 1    
    42   20   21 2    
    43   20   22 1    
    44   22   23 1    
    45   22   24 1    
    46   22   90 1    
    47   23   91 1    
    48   23   92 1    
    49   23   93 1    
    50   24   25 am   BACKBONE|DICT|INTERRES
    51   24   94 1    
    52   25   26 2    
    53   25   27 1    
    54   27   28 1    
    55   27   29 1    
    56   27   95 1    
    57   28   96 1    
    58   28   97 1    
    59   28   98 1    
    60   29   30 am   BACKBONE|DICT|INTERRES
    61   29   99 1    
    62   30   31 2    
    63   30   32 1    
    64   32   33 1    
    65   32   34 1    
    66   32  100 1    
    67   33  101 1    
    68   33  102 1    
    69   33  103 1    
    70   34   35 am   BACKBONE|DICT|INTERRES
    71   34  104 1    
    72   35   36 2    
    73   37   38 2    
    74   37   39 am   BACKBONE|DICT|INTERRES
    75   39   40 1    
    76   39  105 1    
    77   40   41 1    
    78   40   42 1    
    79   40  106 1    
    80   41  107 1    
    81   41  108 1    
    82   41  109 1    
    83   42   43 2    
    84   42   44 am   BACKBONE|DICT|INTERRES
    85   44   45 1    
    86   44  110 1    
    87   45   46 1    
    88   45   47 1    
    89   45  111 1    
    90   46  112 1    
    91   46  113 1    
    92   46  114 1    
    93   47   48 2    
    94   47   49 am   BACKBONE|DICT|INTERRES
    95   49   50 1    
    96   49  115 1    
    97   50   51 1    
    98   50   52 1    
    99   50  116 1    
   100   51  117 1    
   101   51  118 1    
   102   51  119 1    
   103   52   53 2    
   104   52   54 am   BACKBONE|DICT|INTERRES
   105   54   55 1    
   106   54  120 1    
   107   55   56 1    
   108   55   57 1    
   109   55  121 1    
   110   56  122 1    
   111   56  123 1    
   112   56  124 1    
   113   57   58 2    
   114   57   59 am   BACKBONE|DICT|INTERRES
   115   59   60 1    
   116   59  125 1    
   117   60   61 1    
   118   60   62 1    
   119   60  126 1    
   120   61  127 1    
   121   61  128 1    
   122   61  129 1    
   123   62   63 2    
   124   62   64 am   BACKBONE|DICT|INTERRES
   125   64   65 1    
   126   64  130 1    
   127   65   66 1    
   128   65   69 1    
   129   65  131 1    
   130   66   67 am   BACKBONE|DICT|INTERRES
   131   66   68 2    
   132   67  132 1    
   133   67  133 1    
   134   69   70 1    
   135   69  134 1    
   136   69  135 1    
   137   70   71 1    
   138   71  136 1    
   139   71  137 1    
@<TRIPOS>SUBSTRUCTURE
     1 UNK         1 GROUP             0       ****    0 ROOT    
