@<TRIPOS>MOLECULE
3R136
137   139    1
SMALL
USER_CHARGES


@<TRIPOS>ATOM
      1 CA         28.3377   19.8385    2.1001 C.3       0 UNK        -0.1979 
      2 C          28.1306   20.2931    0.6627 C.2       0 UNK         0.4864 
      3 O          27.5021   19.5801   -0.1216 O.2       0 UNK        -0.5359 
      4 N          28.6608   21.4706    0.3114 N.am      1 UNK        -0.4318 
      5 CA         28.4906   22.1158   -0.9927 C.3       1 UNK         0.0824 
      6 C6         29.5990   23.1671   -1.2698 C.3       12 UNK        -0.0944 
      7 S7         29.8571   24.3807    0.0748 S.3       12 UNK        -0.2672 
      8 C8         31.3832   23.7220    0.8192 C.3       12 UNK         0.0333 
      9 C9         31.7730   24.5009    2.0644 C.ar      12 UNK        -0.0807 
     10 C10        32.7649   25.4836    2.0002 C.ar      12 UNK        -0.0894 
     11 C11        33.1142   26.2134    3.1403 C.ar      12 UNK        -0.0804 
     12 C12        32.4685   25.9488    4.3516 C.ar      12 UNK        -0.0824 
     13 C13        31.4883   24.9562    4.4319 C.ar      12 UNK        -0.0762 
     14 C14        31.1454   24.2341    3.2848 C.ar      12 UNK        -0.0782 
     15 C15        30.8045   24.6571    5.7578 C.3       12 UNK         0.0230 
     16 S16        29.0456   25.1239    5.7372 S.3       12 UNK        -0.2608 
     17 C17        29.1336   26.9471    5.6632 C.3       12 UNK        -0.0989 
     18 CA         28.9864   27.5166    4.2282 C.3       5 UNK         0.0716 
     19 N          27.8509   26.9292    3.5089 N.am      5 UNK        -0.4135 
     20 C          27.5234   27.1526    2.2297 C.2       4 UNK         0.5031 
     21 O          28.0768   27.9943    1.5158 O.2       4 UNK        -0.5229 
     22 CA         26.3824   26.2675    1.6941 C.3       4 UNK         0.0329 
     23 CB         25.0251   26.6343    2.3316 C.3       4 UNK        -0.2001 
     24 N          26.3099   26.2397    0.2297 N.am      4 UNK        -0.4303 
     25 C          25.9126   27.2085   -0.6099 C.2       3 UNK         0.5044 
     26 O          25.4054   28.2734   -0.2581 O.2       3 UNK        -0.5152 
     27 CA         26.1058   26.9411   -2.1155 C.3       3 UNK         0.0319 
     28 CB         27.4313   27.5528   -2.5995 C.3       3 UNK        -0.2001 
     29 N          26.0888   25.5168   -2.4576 N.am      3 UNK        -0.4354 
     30 C          24.9998   24.7354   -2.4199 C.2       2 UNK         0.4964 
     31 O          23.8668   25.1502   -2.1738 O.2       2 UNK        -0.5047 
     32 CA         25.2072   23.2334   -2.6901 C.3       2 UNK         0.0288 
     33 CB         24.8962   22.9044   -4.1596 C.3       2 UNK        -0.2113 
     34 N          26.5490   22.7365   -2.3576 N.am      2 UNK        -0.4145 
     35 C          27.0767   22.7171   -1.1245 C.2       1 UNK         0.5006 
     36 O          26.5074   23.1753   -0.1300 O.2       1 UNK        -0.5103 
     37 C          28.9588   29.0567    4.2770 C.2       5 UNK         0.5055 
     38 O          30.0224   29.6759    4.2628 O.2       5 UNK        -0.5220 
     39 N          27.7546   29.6446    4.3361 N.am      6 UNK        -0.4450 
     40 CA         27.5341   31.0913    4.3780 C.3       6 UNK         0.0367 
     41 CB         26.0567   31.3826    4.6870 C.3       6 UNK        -0.1929 
     42 C          27.9721   31.7969    3.0853 C.2       6 UNK         0.5070 
     43 O          28.6842   32.7982    3.1559 O.2       6 UNK        -0.5237 
     44 N          27.5766   31.2464    1.9282 N.am      7 UNK        -0.4739 
     45 CA         27.9628   31.7567    0.6075 C.3       7 UNK         0.0276 
     46 CB         27.0647   31.1388   -0.4708 C.3       7 UNK        -0.1927 
     47 C          29.4403   31.4824    0.2901 C.2       7 UNK         0.5013 
     48 O          30.0807   32.2982   -0.3730 O.2       7 UNK        -0.5193 
     49 N          29.9611   30.3608    0.8059 N.am      8 UNK        -0.4253 
     50 CA         31.3752   29.9874    0.7474 C.3       8 UNK         0.0242 
     51 CB         31.4865   28.4724    0.9620 C.3       8 UNK        -0.2000 
     52 C          32.2678   30.7652    1.7412 C.2       8 UNK         0.4948 
     53 O          33.4823   30.5615    1.7299 O.2       8 UNK        -0.5275 
     54 N          31.6664   31.6398    2.5640 N.am      9 UNK        -0.4246 
     55 CA         32.2889   32.5496    3.5308 C.3       9 UNK         0.0261 
     56 CB         33.1688   33.5957    2.8128 C.3       9 UNK        -0.1959 
     57 C          33.0207   31.8323    4.6809 C.2       9 UNK         0.5033 
     58 O          34.0856   32.2872    5.1046 O.2       9 UNK        -0.5390 
     59 N          32.4338   30.7326    5.1761 N.am      10 UNK        -0.4215 
     60 CA         32.8218   29.9089    6.3338 C.3       10 UNK         0.0240 
     61 CB         32.7629   30.7266    7.6384 C.3       10 UNK        -0.1982 
     62 C          34.1617   29.1546    6.2201 C.2       10 UNK         0.4970 
     63 O          34.2428   28.0390    6.7340 O.2       10 UNK        -0.4916 
     64 N          35.1544   29.7542    5.5505 N.am      11 UNK        -0.4279 
     65 CA         36.5057   29.2484    5.2591 C.3       11 UNK         0.1003 
     66 C          37.2670   28.6529    6.4841 C.2       11 UNK         0.5709 
     67 N          38.0901   27.6277    6.3052 N.am      11 UNK        -0.7358 
     68 O          37.1713   29.1696    7.5962 O.2       11 UNK        -0.4999 
     69 C69        36.5756   28.4347    3.9296 C.3       12 UNK        -0.0954 
     70 S70        35.6908   26.8383    3.9329 S.3       12 UNK        -0.2268 
     71 C71        34.1656   27.3088    3.0626 C.3       12 UNK         0.0203 
     72 H72        28.9239   20.5558    2.6745 H         1 UNK         0.0888 
     73 H73        27.3752   19.7132    2.5957 H         1 UNK         0.0888 
     74 H74        28.8590   18.8817    2.1199 H         1 UNK         0.0888 
     75 H75        29.1149   22.0419    1.0083 H         1 UNK         0.3017 
     76 H76        28.5827   21.3389   -1.7554 H         1 UNK         0.0873 
     77 H77        29.3912   23.7160   -2.1903 H         1 UNK         0.0745 
     78 H78        30.5400   22.6484   -1.4600 H         1 UNK         0.0745 
     79 H79        32.1866   23.7581    0.0816 H         1 UNK         0.0705 
     80 H80        31.2480   22.6701    1.0742 H         1 UNK         0.0705 
     81 H81        33.2546   25.6900    1.0584 H         1 UNK         0.1334 
     82 H82        32.7383   26.5128    5.2333 H         1 UNK         0.1417 
     83 H83        30.3795   23.4728    3.3419 H         1 UNK         0.1562 
     84 H84        31.3061   25.1638    6.5839 H         1 UNK         0.0748 
     85 H85        30.8820   23.5887    5.9642 H         1 UNK         0.0748 
     86 H86        30.0725   27.2801    6.1105 H         1 UNK         0.0940 
     87 H87        28.3426   27.3327    6.3099 H         1 UNK         0.0940 
     88 H88        29.8781   27.2374    3.6648 H         1 UNK         0.0703 
     89 H89        27.3556   26.2089    4.0147 H         1 UNK         0.3081 
     90 H90        26.6188   25.2413    1.9808 H         1 UNK         0.0719 
     91 H91        24.7778   27.6870    2.1921 H         1 UNK         0.0809 
     92 H92        24.2156   26.0411    1.9061 H         1 UNK         0.0809 
     93 H93        25.0296   26.4462    3.4056 H         1 UNK         0.0809 
     94 H94        26.6714   25.3893   -0.1833 H         1 UNK         0.2990 
     95 H95        25.2870   27.4296   -2.6483 H         1 UNK         0.0690 
     96 H96        27.5780   27.3931   -3.6679 H         1 UNK         0.0788 
     97 H97        28.2880   27.1288   -2.0730 H         1 UNK         0.0788 
     98 H98        27.4473   28.6299   -2.4319 H         1 UNK         0.0788 
     99 H99        26.9743   25.0935   -2.6922 H         1 UNK         0.2993 
    100 H100       24.4939   22.6959   -2.0610 H         1 UNK         0.0949 
    101 H101       24.9391   21.8307   -4.3445 H         1 UNK         0.0767 
    102 H102       23.8929   23.2369   -4.4305 H         1 UNK         0.0767 
    103 H103       25.5956   23.3922   -4.8399 H         1 UNK         0.0767 
    104 H104       27.0831   22.3475   -3.1219 H         1 UNK         0.3013 
    105 H105       26.9349   29.0556    4.3428 H         1 UNK         0.3121 
    106 H106       28.1369   31.4959    5.1942 H         1 UNK         0.0774 
    107 H107       25.8738   32.4571    4.7334 H         1 UNK         0.0815 
    108 H108       25.3921   30.9721    3.9257 H         1 UNK         0.0815 
    109 H109       25.7630   30.9648    5.6501 H         1 UNK         0.0815 
    110 H110       27.0348   30.3931    1.9480 H         1 UNK         0.2987 
    111 H111       27.8135   32.8390    0.6003 H         1 UNK         0.0949 
    112 H112       27.2297   30.0649   -0.5462 H         1 UNK         0.0806 
    113 H113       26.0080   31.3049   -0.2606 H         1 UNK         0.0806 
    114 H114       27.2757   31.5701   -1.4502 H         1 UNK         0.0806 
    115 H115       29.3400   29.7185    1.2874 H         1 UNK         0.3010 
    116 H116       31.7433   30.2120   -0.2559 H         1 UNK         0.0829 
    117 H117       30.8166   27.9192    0.3028 H         1 UNK         0.0813 
    118 H118       32.4987   28.1309    0.7497 H         1 UNK         0.0813 
    119 H119       31.2489   28.1948    1.9886 H         1 UNK         0.0813 
    120 H120       30.6568   31.6964    2.5202 H         1 UNK         0.3038 
    121 H121       31.4643   33.0886    3.9996 H         1 UNK         0.0769 
    122 H122       33.5158   34.3598    3.5094 H         1 UNK         0.0811 
    123 H123       32.6149   34.1056    2.0245 H         1 UNK         0.0811 
    124 H124       34.0524   33.1416    2.3632 H         1 UNK         0.0811 
    125 H125       31.5707   30.4257    4.7232 H         1 UNK         0.3204 
    126 H126       32.0496   29.1405    6.3996 H         1 UNK         0.0748 
    127 H127       32.9533   30.0916    8.5048 H         1 UNK         0.0771 
    128 H128       33.5063   31.5243    7.6529 H         1 UNK         0.0771 
    129 H129       31.7812   31.1793    7.7782 H         1 UNK         0.0771 
    130 H130       34.9678   30.7064    5.2441 H         1 UNK         0.2980 
    131 H131       37.0687   30.1603    5.0580 H         1 UNK         0.0545 
    132 H132       38.1684   27.1861    5.4026 H         1 UNK         0.3459 
    133 H133       38.6013   27.2625    7.0931 H         1 UNK         0.3459 
    134 H134       36.1867   29.0476    3.1146 H         1 UNK         0.0616 
    135 H135       37.6152   28.2426    3.6604 H         1 UNK         0.0616 
    136 H136       34.4143   27.5391    2.0259 H         1 UNK         0.0634 
    137 H137       33.7569   28.2249    3.4898 H         1 UNK         0.0634 
@<TRIPOS>BOND
     1    1    2 1    
     2    1   72 1    
     3    1   73 1    
     4    1   74 1    
     5    2    3 2    
     6    2    4 am   BACKBONE|DICT|INTERRES
     7    4    5 1    
     8    4   75 1    
     9    5    6 1    
    10    5   35 1    
    11    5   76 1    
    12    6    7 1    
    13    6   77 1    
    14    6   78 1    
    15    7    8 1    
    16    8    9 1    
    17    8   79 1    
    18    8   80 1    
    19    9   10 ar   
    20    9   14 ar   
    21   10   11 ar   
    22   10   81 1    
    23   11   12 ar   
    24   11   71 1    
    25   12   13 ar   
    26   12   82 1    
    27   13   14 ar   
    28   13   15 1    
    29   14   83 1    
    30   15   16 1    
    31   15   84 1    
    32   15   85 1    
    33   16   17 1    
    34   17   18 1    
    35   17   86 1    
    36   17   87 1    
    37   18   19 1    
    38   18   37 1    
    39   18   88 1    
    40   19   20 am   BACKBONE|DICT|INTERRES
    41   19   89 1    
    42   20   21 2    
    43   20   22 1    
    44   22   23 1    
    45   22   24 1    
    46   22   90 1    
    47   23   91 1    
    48   23   92 1    
    49   23   93 1    
    50   24   25 am   BACKBONE|DICT|INTERRES
    51   24   94 1    
    52   25   26 2    
    53   25   27 1    
    54   27   28 1    
    55   27   29 1    
    56   27   95 1    
    57   28   96 1    
    58   28   97 1    
    59   28   98 1    
    60   29   30 am   BACKBONE|DICT|INTERRES
    61   29   99 1    
    62   30   31 2    
    63   30   32 1    
    64   32   33 1    
    65   32   34 1    
    66   32  100 1    
    67   33  101 1    
    68   33  102 1    
    69   33  103 1    
    70   34   35 am   BACKBONE|DICT|INTERRES
    71   34  104 1    
    72   35   36 2    
    73   37   38 2    
    74   37   39 am   BACKBONE|DICT|INTERRES
    75   39   40 1    
    76   39  105 1    
    77   40   41 1    
    78   40   42 1    
    79   40  106 1    
    80   41  107 1    
    81   41  108 1    
    82   41  109 1    
    83   42   43 2    
    84   42   44 am   BACKBONE|DICT|INTERRES
    85   44   45 1    
    86   44  110 1    
    87   45   46 1    
    88   45   47 1    
    89   45  111 1    
    90   46  112 1    
    91   46  113 1    
    92   46  114 1    
    93   47   48 2    
    94   47   49 am   BACKBONE|DICT|INTERRES
    95   49   50 1    
    96   49  115 1    
    97   50   51 1    
    98   50   52 1    
    99   50  116 1    
   100   51  117 1    
   101   51  118 1    
   102   51  119 1    
   103   52   53 2    
   104   52   54 am   BACKBONE|DICT|INTERRES
   105   54   55 1    
   106   54  120 1    
   107   55   56 1    
   108   55   57 1    
   109   55  121 1    
   110   56  122 1    
   111   56  123 1    
   112   56  124 1    
   113   57   58 2    
   114   57   59 am   BACKBONE|DICT|INTERRES
   115   59   60 1    
   116   59  125 1    
   117   60   61 1    
   118   60   62 1    
   119   60  126 1    
   120   61  127 1    
   121   61  128 1    
   122   61  129 1    
   123   62   63 2    
   124   62   64 am   BACKBONE|DICT|INTERRES
   125   64   65 1    
   126   64  130 1    
   127   65   66 1    
   128   65   69 1    
   129   65  131 1    
   130   66   67 am   BACKBONE|DICT|INTERRES
   131   66   68 2    
   132   67  132 1    
   133   67  133 1    
   134   69   70 1    
   135   69  134 1    
   136   69  135 1    
   137   70   71 1    
   138   71  136 1    
   139   71  137 1    
@<TRIPOS>SUBSTRUCTURE
     1 UNK         1 GROUP             0       ****    0 ROOT    
