@<TRIPOS>MOLECULE
3R136
137   139    1
SMALL
USER_CHARGES


@<TRIPOS>ATOM
      1 CA         33.8881   21.1837   -0.1604 C.3       0 UNK        -0.1979 
      2 C          32.8918   22.2321    0.3128 C.2       0 UNK         0.4864 
      3 O          33.0155   22.7321    1.4315 O.2       0 UNK        -0.5359 
      4 N          31.9093   22.5679   -0.5292 N.am      1 UNK        -0.4318 
      5 CA         30.8855   23.5805   -0.2828 C.3       1 UNK         0.0824 
      6 C6         29.7916   23.1060    0.7171 C.3       12 UNK        -0.0944 
      7 S7         29.0820   24.4909    1.6732 S.3       12 UNK        -0.2672 
      8 C8         29.9008   24.2337    3.2754 C.3       12 UNK         0.0333 
      9 C9         29.5237   25.3103    4.2810 C.ar      12 UNK        -0.0807 
     10 C10        30.4369   26.3164    4.6117 C.ar      12 UNK        -0.0894 
     11 C11        30.1153   27.2761    5.5757 C.ar      12 UNK        -0.0804 
     12 C12        28.8594   27.2429    6.1876 C.ar      12 UNK        -0.0824 
     13 C13        27.9332   26.2479    5.8592 C.ar      12 UNK        -0.0762 
     14 C14        28.2745   25.2789    4.9100 C.ar      12 UNK        -0.0782 
     15 C15        26.5766   26.2123    6.5543 C.3       12 UNK         0.0230 
     16 S16        25.1753   26.4521    5.4119 S.3       12 UNK        -0.2608 
     17 C17        25.6336   27.9907    4.5423 C.3       12 UNK        -0.0989 
     18 CA         25.9884   27.7293    3.0518 C.3       5 UNK         0.0716 
     19 N          24.8152   27.3149    2.2799 N.am      5 UNK        -0.4135 
     20 C          24.5548   26.0789    1.8391 C.2       4 UNK         0.5031 
     21 O          25.2586   25.0949    2.0686 O.2       4 UNK        -0.5229 
     22 CA         23.3007   25.9078    0.9554 C.3       4 UNK         0.0329 
     23 CB         22.3047   27.0889    1.0327 C.3       4 UNK        -0.2001 
     24 N          23.6563   25.6362   -0.4433 N.am      4 UNK        -0.4303 
     25 C          24.4729   26.3693   -1.2136 C.2       3 UNK         0.5044 
     26 O          25.0191   27.4131   -0.8473 O.2       3 UNK        -0.5152 
     27 CA         24.7185   25.8606   -2.6434 C.3       3 UNK         0.0319 
     28 CB         23.9375   26.7096   -3.6590 C.3       3 UNK        -0.2001 
     29 N          26.1455   25.9133   -2.9643 N.am      3 UNK        -0.4354 
     30 C          27.0679   25.1221   -2.4017 C.2       2 UNK         0.4964 
     31 O          26.7844   24.1690   -1.6714 O.2       2 UNK        -0.5047 
     32 CA         28.5444   25.4423   -2.6960 C.3       2 UNK         0.0288 
     33 CB         28.8149   26.9495   -2.8861 C.3       2 UNK        -0.2113 
     34 N          29.3498   24.9578   -1.5777 N.am      2 UNK        -0.4145 
     35 C          30.2993   24.0213   -1.6374 C.2       1 UNK         0.5006 
     36 O          30.7018   23.5054   -2.6856 O.2       1 UNK        -0.5103 
     37 C          26.6498   28.9501    2.3737 C.2       5 UNK         0.5055 
     38 O          27.2230   29.7925    3.0666 O.2       5 UNK        -0.5220 
     39 N          26.5583   29.0540    1.0355 N.am      6 UNK        -0.4450 
     40 CA         27.1099   30.1731    0.2594 C.3       6 UNK         0.0367 
     41 CB         26.5453   30.1475   -1.1699 C.3       6 UNK        -0.1929 
     42 C          28.6482   30.2198    0.2267 C.2       6 UNK         0.5070 
     43 O          29.2095   31.2955    0.0156 O.2       6 UNK        -0.5237 
     44 N          29.3149   29.0805    0.4618 N.am      7 UNK        -0.4739 
     45 CA         30.7755   28.9516    0.5312 C.3       7 UNK         0.0276 
     46 CB         31.1706   27.4909    0.2515 C.3       7 UNK        -0.1927 
     47 C          31.3499   29.4615    1.8683 C.2       7 UNK         0.5013 
     48 O          32.1263   28.7565    2.5143 O.2       7 UNK        -0.5193 
     49 N          30.9773   30.6891    2.2560 N.am      8 UNK        -0.4253 
     50 CA         31.3540   31.3501    3.5110 C.3       8 UNK         0.0242 
     51 CB         30.7050   32.7415    3.5680 C.3       8 UNK        -0.2000 
     52 C          32.8723   31.4498    3.7391 C.2       8 UNK         0.4948 
     53 O          33.3194   31.3552    4.8812 O.2       8 UNK        -0.5275 
     54 N          33.6358   31.5782    2.6448 N.am      9 UNK        -0.4246 
     55 CA         35.1000   31.5934    2.6218 C.3       9 UNK         0.0261 
     56 CB         35.5721   31.9515    1.2028 C.3       9 UNK        -0.1959 
     57 C          35.7649   30.2852    3.0955 C.2       9 UNK         0.5033 
     58 O          36.9461   30.3202    3.4436 O.2       9 UNK        -0.5390 
     59 N          35.0265   29.1633    3.1080 N.am      10 UNK        -0.4215 
     60 CA         35.5009   27.8855    3.6472 C.3       10 UNK         0.0240 
     61 CB         34.6426   26.7393    3.0870 C.3       10 UNK        -0.1982 
     62 C          35.5052   27.8521    5.1871 C.2       10 UNK         0.4970 
     63 O          36.2390   27.0456    5.7604 O.2       10 UNK        -0.4916 
     64 N          34.6958   28.7070    5.8252 N.am      11 UNK        -0.4279 
     65 CA         34.6175   28.8580    7.2827 C.3       11 UNK         0.1003 
     66 C          35.6390   29.9037    7.8051 C.2       11 UNK         0.5709 
     67 N          35.9919   29.8331    9.0817 N.am      11 UNK        -0.7358 
     68 O          36.1002   30.7869    7.0843 O.2       11 UNK        -0.4999 
     69 C69        33.1730   29.1994    7.7312 C.3       12 UNK        -0.0954 
     70 S70        32.0353   27.7993    7.4693 S.3       12 UNK        -0.2268 
     71 C71        31.1326   28.3294    5.9837 C.3       12 UNK         0.0203 
     72 H72        33.8807   20.3281    0.5143 H         1 UNK         0.0888 
     73 H73        33.6577   20.8262   -1.1639 H         1 UNK         0.0888 
     74 H74        34.8947   21.6009   -0.1716 H         1 UNK         0.0888 
     75 H75        31.8716   22.1792   -1.4645 H         1 UNK         0.3017 
     76 H76        31.4013   24.4501    0.1307 H         1 UNK         0.0873 
     77 H77        28.9847   22.5756    0.2069 H         1 UNK         0.0745 
     78 H78        30.2035   22.3820    1.4217 H         1 UNK         0.0745 
     79 H79        29.6239   23.2552    3.6707 H         1 UNK         0.0705 
     80 H80        30.9818   24.2119    3.1243 H         1 UNK         0.0705 
     81 H81        31.4067   26.3422    4.1348 H         1 UNK         0.1334 
     82 H82        28.6127   27.9852    6.9346 H         1 UNK         0.1417 
     83 H83        27.5634   24.5044    4.6545 H         1 UNK         0.1562 
     84 H84        26.5216   26.9725    7.3352 H         1 UNK         0.0748 
     85 H85        26.4597   25.2515    7.0573 H         1 UNK         0.0748 
     86 H86        26.4644   28.4569    5.0740 H         1 UNK         0.0940 
     87 H87        24.8035   28.6949    4.6192 H         1 UNK         0.0940 
     88 H88        26.7469   26.9442    3.0147 H         1 UNK         0.0703 
     89 H89        24.1850   28.0561    2.0088 H         1 UNK         0.3081 
     90 H90        22.7869   25.0198    1.3268 H         1 UNK         0.0719 
     91 H91        22.7124   28.0080    0.6100 H         1 UNK         0.0809 
     92 H92        21.3903   26.8596    0.4854 H         1 UNK         0.0809 
     93 H93        22.0123   27.2931    2.0638 H         1 UNK         0.0809 
     94 H94        23.2873   24.7766   -0.8255 H         1 UNK         0.2990 
     95 H95        24.3821   24.8245   -2.7232 H         1 UNK         0.0690 
     96 H96        24.0871   26.3495   -4.6771 H         1 UNK         0.0788 
     97 H97        24.2380   27.7579   -3.6249 H         1 UNK         0.0788 
     98 H98        22.8663   26.6717   -3.4563 H         1 UNK         0.0788 
     99 H99        26.4532   26.6920   -3.5277 H         1 UNK         0.2993 
    100 H100       28.8087   24.9171   -3.6163 H         1 UNK         0.0949 
    101 H101       29.8783   27.1394   -3.0333 H         1 UNK         0.0767 
    102 H102       28.3042   27.3456   -3.7642 H         1 UNK         0.0767 
    103 H103       28.4931   27.5288   -2.0203 H         1 UNK         0.0767 
    104 H104       29.0192   25.2204   -0.6577 H         1 UNK         0.3013 
    105 H105       26.0563   28.3442    0.5051 H         1 UNK         0.3121 
    106 H106       26.7745   31.0989    0.7320 H         1 UNK         0.0774 
    107 H107       26.8334   29.2419   -1.7033 H         1 UNK         0.0815 
    108 H108       26.9092   30.9967   -1.7499 H         1 UNK         0.0815 
    109 H109       25.4565   30.2010   -1.1673 H         1 UNK         0.0815 
    110 H110       28.7762   28.2546    0.6764 H         1 UNK         0.2987 
    111 H111       31.2168   29.5672   -0.2559 H         1 UNK         0.0949 
    112 H112       30.7716   26.8176    1.0098 H         1 UNK         0.0806 
    113 H113       30.8144   27.1648   -0.7235 H         1 UNK         0.0806 
    114 H114       32.2549   27.3705    0.2503 H         1 UNK         0.0806 
    115 H115       30.3416   31.1891    1.6418 H         1 UNK         0.3010 
    116 H116       30.9415   30.7514    4.3236 H         1 UNK         0.0829 
    117 H117       29.6182   32.6736    3.5120 H         1 UNK         0.0813 
    118 H118       30.9489   33.2482    4.5030 H         1 UNK         0.0813 
    119 H119       31.0445   33.3799    2.7514 H         1 UNK         0.0813 
    120 H120       33.1693   31.6395    1.7515 H         1 UNK         0.3038 
    121 H121       35.4292   32.3819    3.3019 H         1 UNK         0.0769 
    122 H122       35.2531   31.2076    0.4716 H         1 UNK         0.0811 
    123 H123       36.6606   32.0078    1.1556 H         1 UNK         0.0811 
    124 H124       35.1871   32.9216    0.8877 H         1 UNK         0.0811 
    125 H125       34.0535   29.1960    2.8150 H         1 UNK         0.3204 
    126 H126       36.5284   27.7292    3.3114 H         1 UNK         0.0748 
    127 H127       35.0386   25.7703    3.3936 H         1 UNK         0.0771 
    128 H128       33.6146   26.7949    3.4437 H         1 UNK         0.0771 
    129 H129       34.6206   26.7512    1.9971 H         1 UNK         0.0771 
    130 H130       34.1929   29.4049    5.2916 H         1 UNK         0.2980 
    131 H131       34.8877   27.9055    7.7436 H         1 UNK         0.0545 
    132 H132       36.6477   30.5066    9.4458 H         1 UNK         0.3459 
    133 H133       35.6187   29.1192    9.6880 H         1 UNK         0.3459 
    134 H134       33.1459   29.4310    8.7974 H         1 UNK         0.0616 
    135 H135       32.8011   30.0888    7.2201 H         1 UNK         0.0616 
    136 H136       30.6299   29.2764    6.1841 H         1 UNK         0.0634 
    137 H137       31.8410   28.5105    5.1746 H         1 UNK         0.0634 
@<TRIPOS>BOND
     1    1    2 1    
     2    1   72 1    
     3    1   73 1    
     4    1   74 1    
     5    2    3 2    
     6    2    4 am   BACKBONE|DICT|INTERRES
     7    4    5 1    
     8    4   75 1    
     9    5    6 1    
    10    5   35 1    
    11    5   76 1    
    12    6    7 1    
    13    6   77 1    
    14    6   78 1    
    15    7    8 1    
    16    8    9 1    
    17    8   79 1    
    18    8   80 1    
    19    9   10 ar   
    20    9   14 ar   
    21   10   11 ar   
    22   10   81 1    
    23   11   12 ar   
    24   11   71 1    
    25   12   13 ar   
    26   12   82 1    
    27   13   14 ar   
    28   13   15 1    
    29   14   83 1    
    30   15   16 1    
    31   15   84 1    
    32   15   85 1    
    33   16   17 1    
    34   17   18 1    
    35   17   86 1    
    36   17   87 1    
    37   18   19 1    
    38   18   37 1    
    39   18   88 1    
    40   19   20 am   BACKBONE|DICT|INTERRES
    41   19   89 1    
    42   20   21 2    
    43   20   22 1    
    44   22   23 1    
    45   22   24 1    
    46   22   90 1    
    47   23   91 1    
    48   23   92 1    
    49   23   93 1    
    50   24   25 am   BACKBONE|DICT|INTERRES
    51   24   94 1    
    52   25   26 2    
    53   25   27 1    
    54   27   28 1    
    55   27   29 1    
    56   27   95 1    
    57   28   96 1    
    58   28   97 1    
    59   28   98 1    
    60   29   30 am   BACKBONE|DICT|INTERRES
    61   29   99 1    
    62   30   31 2    
    63   30   32 1    
    64   32   33 1    
    65   32   34 1    
    66   32  100 1    
    67   33  101 1    
    68   33  102 1    
    69   33  103 1    
    70   34   35 am   BACKBONE|DICT|INTERRES
    71   34  104 1    
    72   35   36 2    
    73   37   38 2    
    74   37   39 am   BACKBONE|DICT|INTERRES
    75   39   40 1    
    76   39  105 1    
    77   40   41 1    
    78   40   42 1    
    79   40  106 1    
    80   41  107 1    
    81   41  108 1    
    82   41  109 1    
    83   42   43 2    
    84   42   44 am   BACKBONE|DICT|INTERRES
    85   44   45 1    
    86   44  110 1    
    87   45   46 1    
    88   45   47 1    
    89   45  111 1    
    90   46  112 1    
    91   46  113 1    
    92   46  114 1    
    93   47   48 2    
    94   47   49 am   BACKBONE|DICT|INTERRES
    95   49   50 1    
    96   49  115 1    
    97   50   51 1    
    98   50   52 1    
    99   50  116 1    
   100   51  117 1    
   101   51  118 1    
   102   51  119 1    
   103   52   53 2    
   104   52   54 am   BACKBONE|DICT|INTERRES
   105   54   55 1    
   106   54  120 1    
   107   55   56 1    
   108   55   57 1    
   109   55  121 1    
   110   56  122 1    
   111   56  123 1    
   112   56  124 1    
   113   57   58 2    
   114   57   59 am   BACKBONE|DICT|INTERRES
   115   59   60 1    
   116   59  125 1    
   117   60   61 1    
   118   60   62 1    
   119   60  126 1    
   120   61  127 1    
   121   61  128 1    
   122   61  129 1    
   123   62   63 2    
   124   62   64 am   BACKBONE|DICT|INTERRES
   125   64   65 1    
   126   64  130 1    
   127   65   66 1    
   128   65   69 1    
   129   65  131 1    
   130   66   67 am   BACKBONE|DICT|INTERRES
   131   66   68 2    
   132   67  132 1    
   133   67  133 1    
   134   69   70 1    
   135   69  134 1    
   136   69  135 1    
   137   70   71 1    
   138   71  136 1    
   139   71  137 1    
@<TRIPOS>SUBSTRUCTURE
     1 UNK         1 GROUP             0       ****    0 ROOT    
