@<TRIPOS>MOLECULE
3R136
137   139    1
SMALL
USER_CHARGES


@<TRIPOS>ATOM
      1 CA         29.2308   22.6836   -3.6437 C.3       0 UNK        -0.1979 
      2 C          28.9524   23.1812   -2.2345 C.2       0 UNK         0.4864 
      3 O          28.2402   24.1736   -2.0702 O.2       0 UNK        -0.5359 
      4 N          29.4948   22.4909   -1.2189 N.am      1 UNK        -0.4318 
      5 CA         29.4129   22.8231    0.2133 C.3       1 UNK         0.0824 
      6 C6         30.1156   21.7660    1.1007 C.3       12 UNK        -0.0944 
      7 S7         31.8786   21.5639    0.6779 S.3       12 UNK        -0.2672 
      8 C8         32.7064   22.0992    2.2134 C.3       12 UNK         0.0333 
      9 C9         32.4754   23.5712    2.5358 C.ar      12 UNK        -0.0807 
     10 C10        32.8219   24.5595    1.6064 C.ar      12 UNK        -0.0894 
     11 C11        32.6229   25.9095    1.9035 C.ar      12 UNK        -0.0804 
     12 C12        32.0919   26.2681    3.1416 C.ar      12 UNK        -0.0824 
     13 C13        31.7431   25.2973    4.0825 C.ar      12 UNK        -0.0762 
     14 C14        31.9395   23.9468    3.7750 C.ar      12 UNK        -0.0782 
     15 C15        31.1769   25.7294    5.4312 C.3       12 UNK         0.0230 
     16 S16        29.4373   25.2478    5.7199 S.3       12 UNK        -0.2608 
     17 C17        28.6194   25.4110    4.0950 C.3       12 UNK        -0.0989 
     18 CA         28.6614   26.8144    3.4369 C.3       5 UNK         0.0716 
     19 N          28.5573   26.7113    1.9758 N.am      5 UNK        -0.4135 
     20 C          28.9073   27.6800    1.1176 C.2       4 UNK         0.5031 
     21 O          29.3535   28.7694    1.4757 O.2       4 UNK        -0.5229 
     22 CA         28.6844   27.4279   -0.3843 C.3       4 UNK         0.0329 
     23 CB         29.9580   26.8882   -1.0521 C.3       4 UNK        -0.2001 
     24 N          27.5612   26.5421   -0.7026 N.am      4 UNK        -0.4303 
     25 C          26.2738   26.8189   -0.4497 C.2       3 UNK         0.5044 
     26 O          25.9045   27.7717    0.2355 O.2       3 UNK        -0.5152 
     27 CA         25.2262   25.8820   -1.0673 C.3       3 UNK         0.0319 
     28 CB         25.1476   26.0806   -2.5903 C.3       3 UNK        -0.2001 
     29 N          25.5511   24.4888   -0.7745 N.am      3 UNK        -0.4354 
     30 C          24.9685   23.7595    0.1871 C.2       2 UNK         0.4964 
     31 O          23.9968   24.1363    0.8435 O.2       2 UNK        -0.5047 
     32 CA         25.5806   22.3777    0.4926 C.3       2 UNK         0.0288 
     33 CB         24.8240   21.2754   -0.2665 C.3       2 UNK        -0.2113 
     34 N          27.0136   22.2680    0.1965 N.am      2 UNK        -0.4145 
     35 C          27.9730   23.0519    0.7123 C.2       1 UNK         0.5006 
     36 O          27.7529   23.9657    1.5055 O.2       1 UNK        -0.5103 
     37 C          27.6565   27.8138    4.0532 C.2       5 UNK         0.5055 
     38 O          27.8567   28.2350    5.1932 O.2       5 UNK        -0.5220 
     39 N          26.6425   28.2556    3.2885 N.am      6 UNK        -0.4450 
     40 CA         25.7612   29.3686    3.6637 C.3       6 UNK         0.0367 
     41 CB         24.5725   29.4423    2.6932 C.3       6 UNK        -0.1929 
     42 C          26.4920   30.7259    3.7242 C.2       6 UNK         0.5070 
     43 O          26.0219   31.6273    4.4177 O.2       6 UNK        -0.5237 
     44 N          27.6386   30.8415    3.0366 N.am      7 UNK        -0.4739 
     45 CA         28.5497   31.9879    3.1002 C.3       7 UNK         0.0276 
     46 CB         29.1533   32.2158    1.7036 C.3       7 UNK        -0.1927 
     47 C          29.6495   31.8066    4.1689 C.2       7 UNK         0.5013 
     48 O          30.6174   32.5702    4.1632 O.2       7 UNK        -0.5193 
     49 N          29.4847   30.8110    5.0568 N.am      8 UNK        -0.4253 
     50 CA         30.3980   30.3732    6.1190 C.3       8 UNK         0.0242 
     51 CB         30.6882   31.5203    7.1131 C.3       8 UNK        -0.2000 
     52 C          31.6830   29.7308    5.5664 C.2       8 UNK         0.4948 
     53 O          31.8447   29.5927    4.3531 O.2       8 UNK        -0.5275 
     54 N          32.5914   29.3417    6.4727 N.am      9 UNK        -0.4246 
     55 CA         33.8742   28.6891    6.1687 C.3       9 UNK         0.0261 
     56 CB         34.5353   28.2486    7.4851 C.3       9 UNK        -0.1959 
     57 C          34.8514   29.5345    5.3250 C.2       9 UNK         0.5033 
     58 O          35.8153   28.9846    4.7916 O.2       9 UNK        -0.5390 
     59 N          34.5845   30.8423    5.2053 N.am      10 UNK        -0.4215 
     60 CA         35.2530   31.7574    4.2801 C.3       10 UNK         0.0240 
     61 CB         34.9175   33.2032    4.6824 C.3       10 UNK        -0.1982 
     62 C          34.8796   31.5121    2.8040 C.2       10 UNK         0.4970 
     63 O          35.6364   31.9363    1.9297 O.2       10 UNK        -0.4916 
     64 N          33.7365   30.8548    2.5514 N.am      11 UNK        -0.4279 
     65 CA         33.2009   30.5151    1.2218 C.3       11 UNK         0.1003 
     66 C          32.7846   31.7461    0.3600 C.2       11 UNK         0.5709 
     67 N          32.5289   32.9065    0.9531 N.am      11 UNK        -0.7358 
     68 O          32.6639   31.6490   -0.8591 O.2       11 UNK        -0.4999 
     69 C69        34.0908   29.4980    0.4433 C.3       12 UNK        -0.0954 
     70 S70        34.4012   27.9637    1.3813 S.3       12 UNK        -0.2268 
     71 C71        32.9443   26.9955    0.8921 C.3       12 UNK         0.0203 
     72 H72        28.2955   22.4347   -4.1440 H         1 UNK         0.0888 
     73 H73        29.7302   23.4609   -4.2213 H         1 UNK         0.0888 
     74 H74        29.8651   21.7974   -3.6463 H         1 UNK         0.0888 
     75 H75        30.0763   21.6921   -1.4308 H         1 UNK         0.3017 
     76 H76        29.9395   23.7705    0.3440 H         1 UNK         0.0873 
     77 H77        29.6303   20.7935    0.9979 H         1 UNK         0.0745 
     78 H78        30.0311   22.0346    2.1560 H         1 UNK         0.0745 
     79 H79        33.7788   21.9291    2.1093 H         1 UNK         0.0705 
     80 H80        32.3738   21.4614    3.0339 H         1 UNK         0.0705 
     81 H81        33.2368   24.2740    0.6493 H         1 UNK         0.1334 
     82 H82        31.9494   27.3156    3.3635 H         1 UNK         0.1417 
     83 H83        31.6741   23.1926    4.5035 H         1 UNK         0.1562 
     84 H84        31.2459   26.8113    5.5424 H         1 UNK         0.0748 
     85 H85        31.7932   25.3097    6.2273 H         1 UNK         0.0748 
     86 H86        27.5914   25.0530    4.1774 H         1 UNK         0.0940 
     87 H87        29.1241   24.6898    3.4528 H         1 UNK         0.0940 
     88 H88        29.6370   27.2531    3.6397 H         1 UNK         0.0703 
     89 H89        28.1883   25.8342    1.6170 H         1 UNK         0.3081 
     90 H90        28.4579   28.3950   -0.8383 H         1 UNK         0.0719 
     91 H91        29.7886   26.6529   -2.1031 H         1 UNK         0.0809 
     92 H92        30.7532   27.6325   -1.0213 H         1 UNK         0.0809 
     93 H93        30.3230   25.9850   -0.5624 H         1 UNK         0.0809 
     94 H94        27.7841   25.7145   -1.2540 H         1 UNK         0.2990 
     95 H95        24.2535   26.1453   -0.6462 H         1 UNK         0.0690 
     96 H96        26.0838   25.8194   -3.0859 H         1 UNK         0.0788 
     97 H97        24.9248   27.1196   -2.8374 H         1 UNK         0.0788 
     98 H98        24.3586   25.4677   -3.0263 H         1 UNK         0.0788 
     99 H99        26.3700   24.1128   -1.2409 H         1 UNK         0.2993 
    100 H100       25.4578   22.2050    1.5639 H         1 UNK         0.0949 
    101 H101       24.9387   21.3781   -1.3464 H         1 UNK         0.0767 
    102 H102       25.1759   20.2833    0.0174 H         1 UNK         0.0767 
    103 H103       23.7558   21.3127   -0.0470 H         1 UNK         0.0767 
    104 H104       27.2867   21.5579   -0.4672 H         1 UNK         0.3013 
    105 H105       26.5379   27.8965    2.3459 H         1 UNK         0.3121 
    106 H106       25.3705   29.1616    4.6624 H         1 UNK         0.0774 
    107 H107       23.8477   30.1871    3.0243 H         1 UNK         0.0815 
    108 H108       24.8891   29.7253    1.6888 H         1 UNK         0.0815 
    109 H109       24.0499   28.4880    2.6258 H         1 UNK         0.0815 
    110 H110       27.9760   30.0463    2.5039 H         1 UNK         0.2987 
    111 H111       27.9893   32.8850    3.3720 H         1 UNK         0.0949 
    112 H112       29.8104   31.3967    1.4107 H         1 UNK         0.0806 
    113 H113       28.3776   32.3129    0.9441 H         1 UNK         0.0806 
    114 H114       29.7437   33.1322    1.6788 H         1 UNK         0.0806 
    115 H115       28.6771   30.2122    4.9341 H         1 UNK         0.3010 
    116 H116       29.8669   29.5863    6.6569 H         1 UNK         0.0829 
    117 H117       31.1734   31.1536    8.0179 H         1 UNK         0.0813 
    118 H118       31.3391   32.2814    6.6815 H         1 UNK         0.0813 
    119 H119       29.7671   32.0115    7.4271 H         1 UNK         0.0813 
    120 H120       32.3874   29.4858    7.4515 H         1 UNK         0.3038 
    121 H121       33.6539   27.7942    5.5827 H         1 UNK         0.0769 
    122 H122       35.4749   27.7275    7.2957 H         1 UNK         0.0811 
    123 H123       33.8960   27.5630    8.0417 H         1 UNK         0.0811 
    124 H124       34.7597   29.1001    8.1287 H         1 UNK         0.0811 
    125 H125       33.7776   31.2020    5.6929 H         1 UNK         0.3204 
    126 H126       36.3314   31.6135    4.3749 H         1 UNK         0.0748 
    127 H127       35.4199   33.9173    4.0282 H         1 UNK         0.0771 
    128 H128       33.8463   33.4018    4.6203 H         1 UNK         0.0771 
    129 H129       35.2412   33.4175    5.7012 H         1 UNK         0.0771 
    130 H130       33.1642   30.5305    3.3263 H         1 UNK         0.2980 
    131 H131       32.2548   30.0137    1.4288 H         1 UNK         0.0545 
    132 H132       32.5837   32.9891    1.9559 H         1 UNK         0.3459 
    133 H133       32.2572   33.6979    0.3924 H         1 UNK         0.3459 
    134 H134       33.6300   29.2271   -0.5083 H         1 UNK         0.0616 
    135 H135       35.0533   29.9455    0.1923 H         1 UNK         0.0616 
    136 H136       33.0992   26.5782   -0.1039 H         1 UNK         0.0634 
    137 H137       32.0851   27.6626    0.8278 H         1 UNK         0.0634 
@<TRIPOS>BOND
     1    1    2 1    
     2    1   72 1    
     3    1   73 1    
     4    1   74 1    
     5    2    3 2    
     6    2    4 am   BACKBONE|DICT|INTERRES
     7    4    5 1    
     8    4   75 1    
     9    5    6 1    
    10    5   35 1    
    11    5   76 1    
    12    6    7 1    
    13    6   77 1    
    14    6   78 1    
    15    7    8 1    
    16    8    9 1    
    17    8   79 1    
    18    8   80 1    
    19    9   10 ar   
    20    9   14 ar   
    21   10   11 ar   
    22   10   81 1    
    23   11   12 ar   
    24   11   71 1    
    25   12   13 ar   
    26   12   82 1    
    27   13   14 ar   
    28   13   15 1    
    29   14   83 1    
    30   15   16 1    
    31   15   84 1    
    32   15   85 1    
    33   16   17 1    
    34   17   18 1    
    35   17   86 1    
    36   17   87 1    
    37   18   19 1    
    38   18   37 1    
    39   18   88 1    
    40   19   20 am   BACKBONE|DICT|INTERRES
    41   19   89 1    
    42   20   21 2    
    43   20   22 1    
    44   22   23 1    
    45   22   24 1    
    46   22   90 1    
    47   23   91 1    
    48   23   92 1    
    49   23   93 1    
    50   24   25 am   BACKBONE|DICT|INTERRES
    51   24   94 1    
    52   25   26 2    
    53   25   27 1    
    54   27   28 1    
    55   27   29 1    
    56   27   95 1    
    57   28   96 1    
    58   28   97 1    
    59   28   98 1    
    60   29   30 am   BACKBONE|DICT|INTERRES
    61   29   99 1    
    62   30   31 2    
    63   30   32 1    
    64   32   33 1    
    65   32   34 1    
    66   32  100 1    
    67   33  101 1    
    68   33  102 1    
    69   33  103 1    
    70   34   35 am   BACKBONE|DICT|INTERRES
    71   34  104 1    
    72   35   36 2    
    73   37   38 2    
    74   37   39 am   BACKBONE|DICT|INTERRES
    75   39   40 1    
    76   39  105 1    
    77   40   41 1    
    78   40   42 1    
    79   40  106 1    
    80   41  107 1    
    81   41  108 1    
    82   41  109 1    
    83   42   43 2    
    84   42   44 am   BACKBONE|DICT|INTERRES
    85   44   45 1    
    86   44  110 1    
    87   45   46 1    
    88   45   47 1    
    89   45  111 1    
    90   46  112 1    
    91   46  113 1    
    92   46  114 1    
    93   47   48 2    
    94   47   49 am   BACKBONE|DICT|INTERRES
    95   49   50 1    
    96   49  115 1    
    97   50   51 1    
    98   50   52 1    
    99   50  116 1    
   100   51  117 1    
   101   51  118 1    
   102   51  119 1    
   103   52   53 2    
   104   52   54 am   BACKBONE|DICT|INTERRES
   105   54   55 1    
   106   54  120 1    
   107   55   56 1    
   108   55   57 1    
   109   55  121 1    
   110   56  122 1    
   111   56  123 1    
   112   56  124 1    
   113   57   58 2    
   114   57   59 am   BACKBONE|DICT|INTERRES
   115   59   60 1    
   116   59  125 1    
   117   60   61 1    
   118   60   62 1    
   119   60  126 1    
   120   61  127 1    
   121   61  128 1    
   122   61  129 1    
   123   62   63 2    
   124   62   64 am   BACKBONE|DICT|INTERRES
   125   64   65 1    
   126   64  130 1    
   127   65   66 1    
   128   65   69 1    
   129   65  131 1    
   130   66   67 am   BACKBONE|DICT|INTERRES
   131   66   68 2    
   132   67  132 1    
   133   67  133 1    
   134   69   70 1    
   135   69  134 1    
   136   69  135 1    
   137   70   71 1    
   138   71  136 1    
   139   71  137 1    
@<TRIPOS>SUBSTRUCTURE
     1 UNK         1 GROUP             0       ****    0 ROOT    
