@<TRIPOS>MOLECULE
3R136
137   139    1
SMALL
USER_CHARGES


@<TRIPOS>ATOM
      1 CA         24.2726   23.1044    2.0402 C.3       0 UNK        -0.1979 
      2 C          25.7811   23.0010    2.2052 C.2       0 UNK         0.4864 
      3 O          26.3122   23.4184    3.2359 O.2       0 UNK        -0.5359 
      4 N          26.4745   22.4636    1.1900 N.am      1 UNK        -0.4318 
      5 CA         27.9342   22.3177    1.1139 C.3       1 UNK         0.0824 
      6 C6         28.4821   21.2351    2.0954 C.3       12 UNK        -0.0944 
      7 S7         29.7980   20.2098    1.3570 S.3       12 UNK        -0.2672 
      8 C8         31.3360   20.9122    2.0548 C.3       12 UNK         0.0333 
      9 C9         31.9075   22.1151    1.3007 C.ar      12 UNK        -0.0807 
     10 C10        32.7347   23.0131    1.9859 C.ar      12 UNK        -0.0894 
     11 C11        33.2935   24.1166    1.3325 C.ar      12 UNK        -0.0804 
     12 C12        33.0331   24.3122   -0.0261 C.ar      12 UNK        -0.0824 
     13 C13        32.2087   23.4276   -0.7260 C.ar      12 UNK        -0.0762 
     14 C14        31.6606   22.3268   -0.0627 C.ar      12 UNK        -0.0782 
     15 C15        31.9055   23.6603   -2.1992 C.3       12 UNK         0.0230 
     16 S16        30.3146   24.5161   -2.4324 S.3       12 UNK        -0.2608 
     17 C17        30.6955   26.1473   -1.7144 C.3       12 UNK        -0.0989 
     18 CA         29.5715   27.1838   -1.9523 C.3       5 UNK         0.0716 
     19 N          28.3297   26.8277   -1.2623 N.am      5 UNK        -0.4135 
     20 C          27.1366   27.4050   -1.4657 C.2       4 UNK         0.5031 
     21 O          26.9482   28.3444   -2.2392 O.2       4 UNK        -0.5229 
     22 CA         25.9458   26.8325   -0.6814 C.3       4 UNK         0.0329 
     23 CB         25.4691   25.5049   -1.2955 C.3       4 UNK        -0.2001 
     24 N          26.2994   26.6242    0.7216 N.am      4 UNK        -0.4303 
     25 C          26.0407   27.4947    1.7073 C.2       3 UNK         0.5044 
     26 O          25.3837   28.5238    1.5548 O.2       3 UNK        -0.5152 
     27 CA         26.6035   27.1774    3.1064 C.3       3 UNK         0.0319 
     28 CB         25.4896   26.6773    4.0393 C.3       3 UNK        -0.2001 
     29 N          27.6989   26.2069    3.0905 N.am      3 UNK        -0.4354 
     30 C          28.9309   26.4613    2.6239 C.2       2 UNK         0.4964 
     31 O          29.2807   27.5500    2.1621 O.2       2 UNK        -0.5047 
     32 CA         29.9211   25.2836    2.6247 C.3       2 UNK         0.0288 
     33 CB         30.6066   25.1787    3.9936 C.3       2 UNK        -0.2113 
     34 N          29.3104   23.9910    2.3104 N.am      2 UNK        -0.4145 
     35 C          28.5945   23.7097    1.2142 C.2       1 UNK         0.5006 
     36 O          28.3689   24.5346    0.3281 O.2       1 UNK        -0.5103 
     37 C          30.0670   28.5952   -1.5879 C.2       5 UNK         0.5055 
     38 O          30.3235   29.3906   -2.4939 O.2       5 UNK        -0.5220 
     39 N          30.2249   28.8692   -0.2858 N.am      6 UNK        -0.4450 
     40 CA         30.7701   30.1307    0.2191 C.3       6 UNK         0.0367 
     41 CB         31.8474   29.8411    1.2751 C.3       6 UNK        -0.1929 
     42 C          29.6720   31.0235    0.8032 C.2       6 UNK         0.5070 
     43 O          29.6852   32.2288    0.5491 O.2       6 UNK        -0.5237 
     44 N          28.7525   30.4268    1.5778 N.am      7 UNK        -0.4739 
     45 CA         27.6510   31.0549    2.3248 C.3       7 UNK         0.0276 
     46 CB         26.6658   31.7939    1.3972 C.3       7 UNK        -0.1927 
     47 C          28.1298   31.9454    3.4845 C.2       7 UNK         0.5013 
     48 O          27.7652   31.6894    4.6325 O.2       7 UNK        -0.5193 
     49 N          28.9577   32.9493    3.1748 N.am      8 UNK        -0.4253 
     50 CA         29.7026   33.7478    4.1452 C.3       8 UNK         0.0242 
     51 CB         30.1793   35.0450    3.4735 C.3       8 UNK        -0.2000 
     52 C          30.8985   32.9359    4.6623 C.2       8 UNK         0.4948 
     53 O          31.5437   32.2407    3.8729 O.2       8 UNK        -0.5275 
     54 N          31.1653   33.0214    5.9727 N.am      9 UNK        -0.4246 
     55 CA         32.2093   32.3211    6.7423 C.3       9 UNK         0.0261 
     56 CB         33.6214   32.7088    6.2616 C.3       9 UNK        -0.1959 
     57 C          32.0450   30.7881    6.8152 C.2       9 UNK         0.5033 
     58 O          32.2028   30.2280    7.9002 O.2       9 UNK        -0.5390 
     59 N          31.7114   30.1575    5.6808 N.am      10 UNK        -0.4215 
     60 CA         31.4022   28.7393    5.4702 C.3       10 UNK         0.0240 
     61 CB         30.0225   28.4139    6.0823 C.3       10 UNK        -0.1982 
     62 C          32.5186   27.7877    5.9623 C.2       10 UNK         0.4970 
     63 O          32.2974   27.0505    6.9226 O.2       10 UNK        -0.4916 
     64 N          33.7048   27.7607    5.3381 N.am      11 UNK        -0.4279 
     65 CA         34.1817   28.5895    4.2144 C.3       11 UNK         0.1003 
     66 C          35.2580   29.6275    4.6485 C.2       11 UNK         0.5709 
     67 N          35.5997   29.7404    5.9271 N.am      11 UNK        -0.7358 
     68 O          35.7809   30.3608    3.8135 O.2       11 UNK        -0.4999 
     69 C69        34.6853   27.7110    3.0363 C.3       12 UNK        -0.0954 
     70 S70        33.3566   26.7062    2.2962 S.3       12 UNK        -0.2268 
     71 C71        34.1824   25.0993    2.0833 C.3       12 UNK         0.0203 
     72 H72        23.9252   22.5978    1.1400 H         1 UNK         0.0888 
     73 H73        23.7701   22.6555    2.8964 H         1 UNK         0.0888 
     74 H74        23.9737   24.1504    1.9780 H         1 UNK         0.0888 
     75 H75        25.9750   22.1639    0.3642 H         1 UNK         0.3017 
     76 H76        28.1255   21.9812    0.0935 H         1 UNK         0.0873 
     77 H77        28.7830   21.6239    3.0682 H         1 UNK         0.0745 
     78 H78        27.6814   20.5318    2.3305 H         1 UNK         0.0745 
     79 H79        31.1680   21.1652    3.1027 H         1 UNK         0.0705 
     80 H80        32.0941   20.1282    2.0500 H         1 UNK         0.0705 
     81 H81        32.9448   22.8526    3.0344 H         1 UNK         0.1334 
     82 H82        33.4616   25.1660   -0.5331 H         1 UNK         0.1417 
     83 H83        31.0361   21.6422   -0.6189 H         1 UNK         0.1562 
     84 H84        31.8713   22.7038   -2.7228 H         1 UNK         0.0748 
     85 H85        32.7034   24.2357   -2.6713 H         1 UNK         0.0748 
     86 H86        31.6349   26.4913   -2.1528 H         1 UNK         0.0940 
     87 H87        30.8782   26.0259   -0.6451 H         1 UNK         0.0940 
     88 H88        29.3504   27.1939   -3.0221 H         1 UNK         0.0703 
     89 H89        28.3798   26.0094   -0.6570 H         1 UNK         0.3081 
     90 H90        25.1219   27.5456   -0.7565 H         1 UNK         0.0719 
     91 H91        26.2458   24.7399   -1.2768 H         1 UNK         0.0809 
     92 H92        24.6018   25.1133   -0.7639 H         1 UNK         0.0809 
     93 H93        25.1754   25.6432   -2.3368 H         1 UNK         0.0809 
     94 H94        26.8858   25.8228    0.9219 H         1 UNK         0.2990 
     95 H95        26.9942   28.1048    3.5266 H         1 UNK         0.0690 
     96 H96        25.8680   26.4861    5.0436 H         1 UNK         0.0788 
     97 H97        25.0339   25.7583    3.6716 H         1 UNK         0.0788 
     98 H98        24.6952   27.4195    4.1291 H         1 UNK         0.0788 
     99 H99        27.4746   25.2662    3.3975 H         1 UNK         0.2993 
    100 H100       30.6749   25.4820    1.8611 H         1 UNK         0.0949 
    101 H101       31.3463   24.3804    4.0176 H         1 UNK         0.0767 
    102 H102       31.1317   26.1019    4.2231 H         1 UNK         0.0767 
    103 H103       29.8915   24.9974    4.7970 H         1 UNK         0.0767 
    104 H104       29.4121   23.2687    3.0067 H         1 UNK         0.3013 
    105 H105       29.9449   28.1860    0.4115 H         1 UNK         0.3121 
    106 H106       31.2495   30.6906   -0.5869 H         1 UNK         0.0774 
    107 H107       32.2539   30.7670    1.6842 H         1 UNK         0.0815 
    108 H108       31.4522   29.2607    2.1081 H         1 UNK         0.0815 
    109 H109       32.6805   29.2867    0.8439 H         1 UNK         0.0815 
    110 H110       28.8764   29.4344    1.7576 H         1 UNK         0.2987 
    111 H111       27.0973   30.2370    2.7821 H         1 UNK         0.0949 
    112 H112       27.1190   32.6568    0.9092 H         1 UNK         0.0806 
    113 H113       26.2862   31.1301    0.6202 H         1 UNK         0.0806 
    114 H114       25.8050   32.1569    1.9600 H         1 UNK         0.0806 
    115 H115       29.2655   32.9989    2.2063 H         1 UNK         0.3010 
    116 H116       29.0430   34.0017    4.9780 H         1 UNK         0.0829 
    117 H117       29.3384   35.6325    3.1045 H         1 UNK         0.0813 
    118 H118       30.7289   35.6710    4.1778 H         1 UNK         0.0813 
    119 H119       30.8418   34.8419    2.6307 H         1 UNK         0.0813 
    120 H120       30.5540   33.6015    6.5316 H         1 UNK         0.3038 
    121 H121       32.1072   32.6881    7.7650 H         1 UNK         0.0769 
    122 H122       33.8180   32.3696    5.2443 H         1 UNK         0.0811 
    123 H123       34.3839   32.2653    6.9029 H         1 UNK         0.0811 
    124 H124       33.7659   33.7888    6.2873 H         1 UNK         0.0811 
    125 H125       31.6401   30.7572    4.8582 H         1 UNK         0.3204 
    126 H126       31.3023   28.5865    4.3955 H         1 UNK         0.0748 
    127 H127       29.7426   27.3766    5.8970 H         1 UNK         0.0771 
    128 H128       30.0113   28.5662    7.1622 H         1 UNK         0.0771 
    129 H129       29.2421   29.0397    5.6481 H         1 UNK         0.0771 
    130 H130       34.3967   27.1178    5.6927 H         1 UNK         0.2980 
    131 H131       33.3713   29.1989    3.8202 H         1 UNK         0.0545 
    132 H132       35.1645   29.1660    6.6309 H         1 UNK         0.3459 
    133 H133       36.3004   30.4152    6.1893 H         1 UNK         0.3459 
    134 H134       35.0941   28.3301    2.2356 H         1 UNK         0.0616 
    135 H135       35.4987   27.0630    3.3673 H         1 UNK         0.0616 
    136 H136       35.1119   25.2407    1.5298 H         1 UNK         0.0634 
    137 H137       34.4562   24.7058    3.0633 H         1 UNK         0.0634 
@<TRIPOS>BOND
     1    1    2 1    
     2    1   72 1    
     3    1   73 1    
     4    1   74 1    
     5    2    3 2    
     6    2    4 am   BACKBONE|DICT|INTERRES
     7    4    5 1    
     8    4   75 1    
     9    5    6 1    
    10    5   35 1    
    11    5   76 1    
    12    6    7 1    
    13    6   77 1    
    14    6   78 1    
    15    7    8 1    
    16    8    9 1    
    17    8   79 1    
    18    8   80 1    
    19    9   10 ar   
    20    9   14 ar   
    21   10   11 ar   
    22   10   81 1    
    23   11   12 ar   
    24   11   71 1    
    25   12   13 ar   
    26   12   82 1    
    27   13   14 ar   
    28   13   15 1    
    29   14   83 1    
    30   15   16 1    
    31   15   84 1    
    32   15   85 1    
    33   16   17 1    
    34   17   18 1    
    35   17   86 1    
    36   17   87 1    
    37   18   19 1    
    38   18   37 1    
    39   18   88 1    
    40   19   20 am   BACKBONE|DICT|INTERRES
    41   19   89 1    
    42   20   21 2    
    43   20   22 1    
    44   22   23 1    
    45   22   24 1    
    46   22   90 1    
    47   23   91 1    
    48   23   92 1    
    49   23   93 1    
    50   24   25 am   BACKBONE|DICT|INTERRES
    51   24   94 1    
    52   25   26 2    
    53   25   27 1    
    54   27   28 1    
    55   27   29 1    
    56   27   95 1    
    57   28   96 1    
    58   28   97 1    
    59   28   98 1    
    60   29   30 am   BACKBONE|DICT|INTERRES
    61   29   99 1    
    62   30   31 2    
    63   30   32 1    
    64   32   33 1    
    65   32   34 1    
    66   32  100 1    
    67   33  101 1    
    68   33  102 1    
    69   33  103 1    
    70   34   35 am   BACKBONE|DICT|INTERRES
    71   34  104 1    
    72   35   36 2    
    73   37   38 2    
    74   37   39 am   BACKBONE|DICT|INTERRES
    75   39   40 1    
    76   39  105 1    
    77   40   41 1    
    78   40   42 1    
    79   40  106 1    
    80   41  107 1    
    81   41  108 1    
    82   41  109 1    
    83   42   43 2    
    84   42   44 am   BACKBONE|DICT|INTERRES
    85   44   45 1    
    86   44  110 1    
    87   45   46 1    
    88   45   47 1    
    89   45  111 1    
    90   46  112 1    
    91   46  113 1    
    92   46  114 1    
    93   47   48 2    
    94   47   49 am   BACKBONE|DICT|INTERRES
    95   49   50 1    
    96   49  115 1    
    97   50   51 1    
    98   50   52 1    
    99   50  116 1    
   100   51  117 1    
   101   51  118 1    
   102   51  119 1    
   103   52   53 2    
   104   52   54 am   BACKBONE|DICT|INTERRES
   105   54   55 1    
   106   54  120 1    
   107   55   56 1    
   108   55   57 1    
   109   55  121 1    
   110   56  122 1    
   111   56  123 1    
   112   56  124 1    
   113   57   58 2    
   114   57   59 am   BACKBONE|DICT|INTERRES
   115   59   60 1    
   116   59  125 1    
   117   60   61 1    
   118   60   62 1    
   119   60  126 1    
   120   61  127 1    
   121   61  128 1    
   122   61  129 1    
   123   62   63 2    
   124   62   64 am   BACKBONE|DICT|INTERRES
   125   64   65 1    
   126   64  130 1    
   127   65   66 1    
   128   65   69 1    
   129   65  131 1    
   130   66   67 am   BACKBONE|DICT|INTERRES
   131   66   68 2    
   132   67  132 1    
   133   67  133 1    
   134   69   70 1    
   135   69  134 1    
   136   69  135 1    
   137   70   71 1    
   138   71  136 1    
   139   71  137 1    
@<TRIPOS>SUBSTRUCTURE
     1 UNK         1 GROUP             0       ****    0 ROOT    
