@<TRIPOS>MOLECULE
3R136
137   139    1
SMALL
USER_CHARGES


@<TRIPOS>ATOM
      1 CA         31.7009   22.5949   -3.4039 C.3       0 UNK        -0.1979 
      2 C          30.9762   23.8184   -2.8626 C.2       0 UNK         0.4864 
      3 O          30.8403   24.8135   -3.5752 O.2       0 UNK        -0.5359 
      4 N          30.5098   23.7500   -1.6085 N.am      1 UNK        -0.4318 
      5 CA         29.7777   24.8237   -0.9240 C.3       1 UNK         0.0824 
      6 C6         29.7700   24.6251    0.6129 C.3       12 UNK        -0.0944 
      7 S7         29.0437   23.0396    1.1720 S.3       12 UNK        -0.2672 
      8 C8         30.4993   22.1333    1.7931 C.3       12 UNK         0.0333 
      9 C9         31.0790   22.7909    3.0358 C.ar      12 UNK        -0.0807 
     10 C10        32.2771   23.5083    2.9619 C.ar      12 UNK        -0.0894 
     11 C11        32.7722   24.1748    4.0855 C.ar      12 UNK        -0.0804 
     12 C12        32.0751   24.1026    5.2929 C.ar      12 UNK        -0.0824 
     13 C13        30.8770   23.3887    5.3780 C.ar      12 UNK        -0.0762 
     14 C14        30.3934   22.7165    4.2520 C.ar      12 UNK        -0.0782 
     15 C15        30.0768   23.4011    6.6717 C.3       12 UNK         0.0230 
     16 S16        28.5278   24.3522    6.5104 S.3       12 UNK        -0.2608 
     17 C17        29.0948   25.9376    5.7924 C.3       12 UNK        -0.0989 
     18 CA         28.6825   26.0847    4.2981 C.3       5 UNK         0.0716 
     19 N          27.2293   25.9875    4.0917 N.am      5 UNK        -0.4135 
     20 C          26.3061   26.8558    4.5319 C.2       4 UNK         0.5031 
     21 O          26.5697   27.8259    5.2449 O.2       4 UNK        -0.5229 
     22 CA         24.8403   26.6211    4.1067 C.3       4 UNK         0.0329 
     23 CB         24.1059   27.9553    3.8515 C.3       4 UNK        -0.2001 
     24 N          24.6287   25.7191    2.9627 N.am      4 UNK        -0.4303 
     25 C          25.1200   25.8378    1.7204 C.2       3 UNK         0.5044 
     26 O          25.9971   26.6404    1.3923 O.2       3 UNK        -0.5152 
     27 CA         24.4887   24.9158    0.6708 C.3       3 UNK         0.0319 
     28 CB         23.1207   25.4684    0.2232 C.3       3 UNK        -0.2001 
     29 N          25.3777   24.7880   -0.4799 N.am      3 UNK        -0.4354 
     30 C          25.3201   23.8212   -1.4028 C.2       2 UNK         0.4964 
     31 O          24.4817   22.9189   -1.3908 O.2       2 UNK        -0.5047 
     32 CA         26.3761   23.8344   -2.5229 C.3       2 UNK         0.0288 
     33 CB         26.0368   24.8717   -3.6123 C.3       2 UNK        -0.2113 
     34 N          27.7545   23.9706   -2.0339 N.am      2 UNK        -0.4145 
     35 C          28.3465   25.0317   -1.4634 C.2       1 UNK         0.5006 
     36 O          27.8029   26.1280   -1.3242 O.2       1 UNK        -0.5103 
     37 C          29.2836   27.3464    3.6264 C.2       5 UNK         0.5055 
     38 O          30.2843   27.8799    4.1112 O.2       5 UNK        -0.5220 
     39 N          28.6462   27.8174    2.5416 N.am      6 UNK        -0.4450 
     40 CA         29.0087   29.0279    1.8052 C.3       6 UNK         0.0367 
     41 CB         27.8711   29.3747    0.8323 C.3       6 UNK        -0.1929 
     42 C          30.3370   28.8884    1.0429 C.2       6 UNK         0.5070 
     43 O          30.6588   27.8037    0.5555 O.2       6 UNK        -0.5237 
     44 N          31.0537   30.0076    0.9089 N.am      7 UNK        -0.4739 
     45 CA         32.2996   30.1420    0.1540 C.3       7 UNK         0.0276 
     46 CB         33.4639   29.4488    0.8988 C.3       7 UNK        -0.1927 
     47 C          32.5184   31.6396   -0.1078 C.2       7 UNK         0.5013 
     48 O          31.5836   32.3154   -0.5433 O.2       7 UNK        -0.5193 
     49 N          33.7141   32.1563    0.2074 N.am      8 UNK        -0.4253 
     50 CA         33.9602   33.5840    0.4121 C.3       8 UNK         0.0242 
     51 CB         35.4718   33.8613    0.3284 C.3       8 UNK        -0.2000 
     52 C          33.3778   33.9427    1.7880 C.2       8 UNK         0.4948 
     53 O          34.0142   33.6549    2.8031 O.2       8 UNK        -0.5275 
     54 N          32.1330   34.4413    1.7857 N.am      9 UNK        -0.4246 
     55 CA         31.1903   34.4410    2.9097 C.3       9 UNK         0.0261 
     56 CB         31.6992   35.2612    4.1188 C.3       9 UNK        -0.1959 
     57 C          30.7962   32.9866    3.2285 C.2       9 UNK         0.5033 
     58 O          30.0827   32.3809    2.4259 O.2       9 UNK        -0.5390 
     59 N          31.2833   32.4343    4.3431 N.am      10 UNK        -0.4215 
     60 CA         31.1050   31.0352    4.7175 C.3       10 UNK         0.0240 
     61 CB         29.9479   30.9089    5.7234 C.3       10 UNK        -0.1982 
     62 C          32.4140   30.4972    5.2981 C.2       10 UNK         0.4970 
     63 O          33.1686   31.2615    5.9050 O.2       10 UNK        -0.4916 
     64 N          32.6370   29.1936    5.1136 N.am      11 UNK        -0.4279 
     65 CA         33.7979   28.4419    5.6166 C.3       11 UNK         0.1003 
     66 C          33.4459   27.4605    6.7715 C.2       11 UNK         0.5709 
     67 N          32.2112   27.4230    7.2597 N.am      11 UNK        -0.7358 
     68 O          34.3139   26.7385    7.2559 O.2       11 UNK        -0.4999 
     69 C69        34.5941   27.7700    4.4625 C.3       12 UNK        -0.0954 
     70 S70        33.5880   26.6885    3.3904 S.3       12 UNK        -0.2268 
     71 C71        34.0245   25.0266    3.9843 C.3       12 UNK         0.0203 
     72 H72        32.7201   22.8575   -3.6862 H         1 UNK         0.0888 
     73 H73        31.7496   21.7906   -2.6700 H         1 UNK         0.0888 
     74 H74        31.1892   22.2162   -4.2883 H         1 UNK         0.0888 
     75 H75        30.6475   22.9075   -1.0694 H         1 UNK         0.3017 
     76 H76        30.3110   25.7552   -1.1263 H         1 UNK         0.0873 
     77 H77        30.7885   24.7219    0.9874 H         1 UNK         0.0745 
     78 H78        29.2178   25.4347    1.0922 H         1 UNK         0.0745 
     79 H79        30.2037   21.1105    2.0314 H         1 UNK         0.0705 
     80 H80        31.2493   22.0597    1.0044 H         1 UNK         0.0705 
     81 H81        32.8057   23.5838    2.0213 H         1 UNK         0.1334 
     82 H82        32.4458   24.6387    6.1558 H         1 UNK         0.1417 
     83 H83        29.4555   22.1804    4.3088 H         1 UNK         0.1562 
     84 H84        30.6655   23.8220    7.4884 H         1 UNK         0.0748 
     85 H85        29.8382   22.3768    6.9615 H         1 UNK         0.0748 
     86 H86        30.1759   26.0150    5.9040 H         1 UNK         0.0940 
     87 H87        28.6841   26.7534    6.3886 H         1 UNK         0.0940 
     88 H88        29.1177   25.2461    3.7535 H         1 UNK         0.0703 
     89 H89        26.9168   25.2207    3.5147 H         1 UNK         0.3081 
     90 H90        24.3615   26.1399    4.9608 H         1 UNK         0.0719 
     91 H91        24.5705   28.5200    3.0422 H         1 UNK         0.0809 
     92 H92        23.0611   27.7904    3.5883 H         1 UNK         0.0809 
     93 H93        24.1152   28.5901    4.7385 H         1 UNK         0.0809 
     94 H94        23.9432   24.9928    3.1214 H         1 UNK         0.2990 
     95 H95        24.3556   23.9294    1.1206 H         1 UNK         0.0690 
     96 H96        22.6277   24.7986   -0.4814 H         1 UNK         0.0788 
     97 H97        23.2219   26.4424   -0.2575 H         1 UNK         0.0788 
     98 H98        22.4458   25.5918    1.0711 H         1 UNK         0.0788 
     99 H99        26.1159   25.4876   -0.5407 H         1 UNK         0.2993 
    100 H100       26.3354   22.8512   -2.9951 H         1 UNK         0.0949 
    101 H101       25.0577   24.6679   -4.0477 H         1 UNK         0.0767 
    102 H102       26.0074   25.8883   -3.2193 H         1 UNK         0.0767 
    103 H103       26.7648   24.8464   -4.4232 H         1 UNK         0.0767 
    104 H104       28.2971   23.1189   -2.0591 H         1 UNK         0.3013 
    105 H105       27.8323   27.3187    2.1974 H         1 UNK         0.3121 
    106 H106       29.0959   29.8395    2.5287 H         1 UNK         0.0774 
    107 H107       27.7277   28.5895    0.0883 H         1 UNK         0.0815 
    108 H108       28.0837   30.3005    0.2960 H         1 UNK         0.0815 
    109 H109       26.9261   29.5127    1.3581 H         1 UNK         0.0815 
    110 H110       30.6856   30.8774    1.2924 H         1 UNK         0.2987 
    111 H111       32.1713   29.6656   -0.8202 H         1 UNK         0.0949 
    112 H112       33.2768   28.3807    1.0024 H         1 UNK         0.0806 
    113 H113       34.4042   29.5415    0.3543 H         1 UNK         0.0806 
    114 H114       33.6066   29.8553    1.9012 H         1 UNK         0.0806 
    115 H115       34.4142   31.5305    0.5786 H         1 UNK         0.3010 
    116 H116       33.4584   34.1656   -0.3647 H         1 UNK         0.0829 
    117 H117       36.0354   33.2909    1.0680 H         1 UNK         0.0813 
    118 H118       35.8653   33.6105   -0.6569 H         1 UNK         0.0813 
    119 H119       35.6819   34.9173    0.5025 H         1 UNK         0.0813 
    120 H120       31.6984   34.5724    0.8815 H         1 UNK         0.3038 
    121 H121       30.2833   34.9284    2.5488 H         1 UNK         0.0769 
    122 H122       32.6099   34.8574    4.5602 H         1 UNK         0.0811 
    123 H123       30.9449   35.2970    4.9059 H         1 UNK         0.0811 
    124 H124       31.9064   36.2913    3.8288 H         1 UNK         0.0811 
    125 H125       31.9507   32.9483    4.9048 H         1 UNK         0.3204 
    126 H126       30.8783   30.4437    3.8306 H         1 UNK         0.0748 
    127 H127       29.7931   29.8697    6.0159 H         1 UNK         0.0771 
    128 H128       30.1383   31.4823    6.6315 H         1 UNK         0.0771 
    129 H129       29.0115   31.2629    5.2919 H         1 UNK         0.0771 
    130 H130       31.9273   28.6353    4.6406 H         1 UNK         0.2980 
    131 H131       34.4886   29.1459    6.0832 H         1 UNK         0.0545 
    132 H132       32.0036   26.8052    8.0274 H         1 UNK         0.3459 
    133 H133       31.4964   28.0220    6.8810 H         1 UNK         0.3459 
    134 H134       35.0109   28.5496    3.8235 H         1 UNK         0.0616 
    135 H135       35.4576   27.2227    4.8440 H         1 UNK         0.0616 
    136 H136       34.7413   24.5740    3.2979 H         1 UNK         0.0634 
    137 H137       34.5167   25.0804    4.9562 H         1 UNK         0.0634 
@<TRIPOS>BOND
     1    1    2 1    
     2    1   72 1    
     3    1   73 1    
     4    1   74 1    
     5    2    3 2    
     6    2    4 am   BACKBONE|DICT|INTERRES
     7    4    5 1    
     8    4   75 1    
     9    5    6 1    
    10    5   35 1    
    11    5   76 1    
    12    6    7 1    
    13    6   77 1    
    14    6   78 1    
    15    7    8 1    
    16    8    9 1    
    17    8   79 1    
    18    8   80 1    
    19    9   10 ar   
    20    9   14 ar   
    21   10   11 ar   
    22   10   81 1    
    23   11   12 ar   
    24   11   71 1    
    25   12   13 ar   
    26   12   82 1    
    27   13   14 ar   
    28   13   15 1    
    29   14   83 1    
    30   15   16 1    
    31   15   84 1    
    32   15   85 1    
    33   16   17 1    
    34   17   18 1    
    35   17   86 1    
    36   17   87 1    
    37   18   19 1    
    38   18   37 1    
    39   18   88 1    
    40   19   20 am   BACKBONE|DICT|INTERRES
    41   19   89 1    
    42   20   21 2    
    43   20   22 1    
    44   22   23 1    
    45   22   24 1    
    46   22   90 1    
    47   23   91 1    
    48   23   92 1    
    49   23   93 1    
    50   24   25 am   BACKBONE|DICT|INTERRES
    51   24   94 1    
    52   25   26 2    
    53   25   27 1    
    54   27   28 1    
    55   27   29 1    
    56   27   95 1    
    57   28   96 1    
    58   28   97 1    
    59   28   98 1    
    60   29   30 am   BACKBONE|DICT|INTERRES
    61   29   99 1    
    62   30   31 2    
    63   30   32 1    
    64   32   33 1    
    65   32   34 1    
    66   32  100 1    
    67   33  101 1    
    68   33  102 1    
    69   33  103 1    
    70   34   35 am   BACKBONE|DICT|INTERRES
    71   34  104 1    
    72   35   36 2    
    73   37   38 2    
    74   37   39 am   BACKBONE|DICT|INTERRES
    75   39   40 1    
    76   39  105 1    
    77   40   41 1    
    78   40   42 1    
    79   40  106 1    
    80   41  107 1    
    81   41  108 1    
    82   41  109 1    
    83   42   43 2    
    84   42   44 am   BACKBONE|DICT|INTERRES
    85   44   45 1    
    86   44  110 1    
    87   45   46 1    
    88   45   47 1    
    89   45  111 1    
    90   46  112 1    
    91   46  113 1    
    92   46  114 1    
    93   47   48 2    
    94   47   49 am   BACKBONE|DICT|INTERRES
    95   49   50 1    
    96   49  115 1    
    97   50   51 1    
    98   50   52 1    
    99   50  116 1    
   100   51  117 1    
   101   51  118 1    
   102   51  119 1    
   103   52   53 2    
   104   52   54 am   BACKBONE|DICT|INTERRES
   105   54   55 1    
   106   54  120 1    
   107   55   56 1    
   108   55   57 1    
   109   55  121 1    
   110   56  122 1    
   111   56  123 1    
   112   56  124 1    
   113   57   58 2    
   114   57   59 am   BACKBONE|DICT|INTERRES
   115   59   60 1    
   116   59  125 1    
   117   60   61 1    
   118   60   62 1    
   119   60  126 1    
   120   61  127 1    
   121   61  128 1    
   122   61  129 1    
   123   62   63 2    
   124   62   64 am   BACKBONE|DICT|INTERRES
   125   64   65 1    
   126   64  130 1    
   127   65   66 1    
   128   65   69 1    
   129   65  131 1    
   130   66   67 am   BACKBONE|DICT|INTERRES
   131   66   68 2    
   132   67  132 1    
   133   67  133 1    
   134   69   70 1    
   135   69  134 1    
   136   69  135 1    
   137   70   71 1    
   138   71  136 1    
   139   71  137 1    
@<TRIPOS>SUBSTRUCTURE
     1 UNK         1 GROUP             0       ****    0 ROOT    
