@<TRIPOS>MOLECULE
3R136
137   139    1
SMALL
USER_CHARGES


@<TRIPOS>ATOM
      1 CA         27.3140   19.7750   -2.2673 C.3       0 UNK        -0.1979 
      2 C          27.6731   21.1736   -1.7897 C.2       0 UNK         0.4864 
      3 O          26.8206   22.0638   -1.8017 O.2       0 UNK        -0.5359 
      4 N          28.9238   21.3745   -1.3476 N.am      1 UNK        -0.4318 
      5 CA         29.4587   22.6624   -0.8827 C.3       1 UNK         0.0824 
      6 C6         31.0005   22.6641   -0.7372 C.3       12 UNK        -0.0944 
      7 S7         31.7291   21.2556    0.1807 S.3       12 UNK        -0.2672 
      8 C8         31.6330   21.7195    1.9499 C.3       12 UNK         0.0333 
      9 C9         31.9806   23.1725    2.2622 C.ar      12 UNK        -0.0807 
     10 C10        33.1028   23.7947    1.7028 C.ar      12 UNK        -0.0894 
     11 C11        33.3534   25.1516    1.9340 C.ar      12 UNK        -0.0804 
     12 C12        32.4859   25.8761    2.7574 C.ar      12 UNK        -0.0824 
     13 C13        31.3984   25.2551    3.3745 C.ar      12 UNK        -0.0762 
     14 C14        31.1555   23.9011    3.1238 C.ar      12 UNK        -0.0782 
     15 C15        30.5033   26.0551    4.3150 C.3       12 UNK         0.0230 
     16 S16        28.7364   25.8168    3.9456 S.3       12 UNK        -0.2608 
     17 C17        28.0468   27.4652    4.2896 C.3       12 UNK        -0.0989 
     18 CA         28.2266   28.4427    3.1021 C.3       5 UNK         0.0716 
     19 N          27.7785   27.8655    1.8244 N.am      5 UNK        -0.4135 
     20 C          27.9626   28.4029    0.6103 C.2       4 UNK         0.5031 
     21 O          28.4164   29.5341    0.4327 O.2       4 UNK        -0.5229 
     22 CA         27.5942   27.5584   -0.6188 C.3       4 UNK         0.0329 
     23 CB         28.8693   27.1530   -1.3775 C.3       4 UNK        -0.2001 
     24 N          26.8183   26.3564   -0.2957 N.am      4 UNK        -0.4303 
     25 C          25.4817   26.3293   -0.1779 C.2       3 UNK         0.5044 
     26 O          24.7780   27.3371   -0.2529 O.2       3 UNK        -0.5152 
     27 CA         24.7985   24.9636    0.0373 C.3       3 UNK         0.0319 
     28 CB         24.1980   24.4560   -1.2835 C.3       3 UNK        -0.2001 
     29 N          25.6942   23.9374    0.5735 N.am      3 UNK        -0.4354 
     30 C          26.0827   23.8699    1.8559 C.2       2 UNK         0.4964 
     31 O          25.6497   24.6167    2.7334 O.2       2 UNK        -0.5047 
     32 CA         27.1471   22.8136    2.2239 C.3       2 UNK         0.0288 
     33 CB         26.4804   21.5622    2.8167 C.3       2 UNK        -0.2113 
     34 N          28.0128   22.4112    1.1096 N.am      2 UNK        -0.4145 
     35 C          28.7582   23.2417    0.3640 C.2       1 UNK         0.5006 
     36 O          28.8471   24.4486    0.5848 O.2       1 UNK        -0.5103 
     37 C          27.6149   29.8176    3.4459 C.2       5 UNK         0.5055 
     38 O          28.1558   30.5096    4.3076 O.2       5 UNK        -0.5220 
     39 N          26.5254   30.2078    2.7683 N.am      6 UNK        -0.4450 
     40 CA         25.9539   31.5559    2.8251 C.3       6 UNK         0.0367 
     41 CB         24.5984   31.5629    2.1005 C.3       6 UNK        -0.1929 
     42 C          26.8884   32.6294    2.2317 C.2       6 UNK         0.5070 
     43 O          26.8396   33.7771    2.6747 O.2       6 UNK        -0.5237 
     44 N          27.7207   32.2389    1.2565 N.am      7 UNK        -0.4739 
     45 CA         28.7610   33.0725    0.6557 C.3       7 UNK         0.0276 
     46 CB         28.6921   32.9513   -0.8758 C.3       7 UNK        -0.1927 
     47 C          30.1438   32.6523    1.1717 C.2       7 UNK         0.5013 
     48 O          30.9153   33.5059    1.6093 O.2       7 UNK        -0.5193 
     49 N          30.4274   31.3425    1.1512 N.am      8 UNK        -0.4253 
     50 CA         31.6959   30.7300    1.5585 C.3       8 UNK         0.0242 
     51 CB         31.8639   29.3986    0.7994 C.3       8 UNK        -0.2000 
     52 C          31.8106   30.5459    3.0854 C.2       8 UNK         0.4948 
     53 O          32.3028   29.5135    3.5390 O.2       8 UNK        -0.5275 
     54 N          31.3626   31.5433    3.8589 N.am      9 UNK        -0.4246 
     55 CA         31.2542   31.5064    5.3223 C.3       9 UNK         0.0261 
     56 CB         30.5103   32.7640    5.8002 C.3       9 UNK        -0.1959 
     57 C          32.5936   31.3556    6.0668 C.2       9 UNK         0.5033 
     58 O          32.6044   30.8470    7.1886 O.2       9 UNK        -0.5390 
     59 N          33.6930   31.7957    5.4403 N.am      10 UNK        -0.4215 
     60 CA         35.0567   31.6597    5.9584 C.3       10 UNK         0.0240 
     61 CB         35.9547   32.7040    5.2740 C.3       10 UNK        -0.1982 
     62 C          35.6445   30.2465    5.7767 C.2       10 UNK         0.4970 
     63 O          36.6287   29.9240    6.4434 O.2       10 UNK        -0.4916 
     64 N          35.0637   29.4465    4.8750 N.am      11 UNK        -0.4279 
     65 CA         35.4777   28.0749    4.5640 C.3       11 UNK         0.1003 
     66 C          34.6466   27.0567    5.3955 C.2       11 UNK         0.5709 
     67 N          35.2345   25.9253    5.7606 N.am      11 UNK        -0.7358 
     68 O          33.4811   27.2772    5.7178 O.2       11 UNK        -0.4999 
     69 C69        35.4056   27.8656    3.0269 C.3       12 UNK        -0.0954 
     70 S70        35.8888   26.2118    2.4195 S.3       12 UNK        -0.2268 
     71 C71        34.5346   25.8365    1.2581 C.3       12 UNK         0.0203 
     72 H72        26.4917   19.3757   -1.6743 H         1 UNK         0.0888 
     73 H73        26.9991   19.8055   -3.3099 H         1 UNK         0.0888 
     74 H74        28.1562   19.0879   -2.1869 H         1 UNK         0.0888 
     75 H75        29.5828   20.6078   -1.3398 H         1 UNK         0.3017 
     76 H76        29.2290   23.3779   -1.6759 H         1 UNK         0.0873 
     77 H77        31.4335   22.6229   -1.7377 H         1 UNK         0.0745 
     78 H78        31.3510   23.6144   -0.3334 H         1 UNK         0.0745 
     79 H79        32.3042   21.0719    2.5152 H         1 UNK         0.0705 
     80 H80        30.6254   21.4883    2.2987 H         1 UNK         0.0705 
     81 H81        33.7564   23.2298    1.0522 H         1 UNK         0.1334 
     82 H82        32.6567   26.9265    2.9369 H         1 UNK         0.1417 
     83 H83        30.3032   23.4215    3.5845 H         1 UNK         0.1562 
     84 H84        30.7502   27.1166    4.2557 H         1 UNK         0.0748 
     85 H85        30.7005   25.7516    5.3437 H         1 UNK         0.0748 
     86 H86        28.5113   27.8605    5.1957 H         1 UNK         0.0940 
     87 H87        26.9873   27.3376    4.5210 H         1 UNK         0.0940 
     88 H88        29.2976   28.6217    2.9872 H         1 UNK         0.0703 
     89 H89        27.4255   26.9200    1.8757 H         1 UNK         0.3081 
     90 H90        27.0026   28.1944   -1.2809 H         1 UNK         0.0719 
     91 H91        29.4111   28.0340   -1.7246 H         1 UNK         0.0809 
     92 H92        28.6372   26.5498   -2.2552 H         1 UNK         0.0809 
     93 H93        29.5540   26.5837   -0.7479 H         1 UNK         0.0809 
     94 H94        27.3530   25.5066   -0.1428 H         1 UNK         0.2990 
     95 H95        23.9799   25.1151    0.7443 H         1 UNK         0.0690 
     96 H96        23.6499   23.5249   -1.1382 H         1 UNK         0.0788 
     97 H97        24.9693   24.2764   -2.0340 H         1 UNK         0.0788 
     98 H98        23.4983   25.1817   -1.7006 H         1 UNK         0.0788 
     99 H99        26.0854   23.2819   -0.0943 H         1 UNK         0.2993 
    100 H100       27.7874   23.2533    2.9892 H         1 UNK         0.0949 
    101 H101       25.8501   21.8227    3.6684 H         1 UNK         0.0767 
    102 H102       25.8482   21.0571    2.0851 H         1 UNK         0.0767 
    103 H103       27.2224   20.8472    3.1728 H         1 UNK         0.0767 
    104 H104       27.9855   21.4381    0.8431 H         1 UNK         0.3013 
    105 H105       26.1331   29.5725    2.0884 H         1 UNK         0.3121 
    106 H106       25.7853   31.8081    3.8743 H         1 UNK         0.0774 
    107 H107       24.1378   32.5507    2.1466 H         1 UNK         0.0815 
    108 H108       24.7015   31.3005    1.0467 H         1 UNK         0.0815 
    109 H109       23.9003   30.8603    2.5560 H         1 UNK         0.0815 
    110 H110       27.7162   31.2624    0.9773 H         1 UNK         0.2987 
    111 H111       28.6114   34.1220    0.9194 H         1 UNK         0.0949 
    112 H112       27.7338   33.3061   -1.2554 H         1 UNK         0.0806 
    113 H113       29.4703   33.5505   -1.3504 H         1 UNK         0.0806 
    114 H114       28.8217   31.9211   -1.2107 H         1 UNK         0.0806 
    115 H115       29.7120   30.6990    0.8161 H         1 UNK         0.3010 
    116 H116       32.5120   31.3897    1.2566 H         1 UNK         0.0829 
    117 H117       31.7653   29.5383   -0.2771 H         1 UNK         0.0813 
    118 H118       32.8488   28.9667    0.9776 H         1 UNK         0.0813 
    119 H119       31.1232   28.6604    1.1098 H         1 UNK         0.0813 
    120 H120       31.0110   32.3712    3.3922 H         1 UNK         0.3038 
    121 H121       30.6485   30.6344    5.5783 H         1 UNK         0.0769 
    122 H122       31.0492   33.6759    5.5404 H         1 UNK         0.0811 
    123 H123       30.3839   32.7554    6.8837 H         1 UNK         0.0811 
    124 H124       29.5140   32.8240    5.3609 H         1 UNK         0.0811 
    125 H125       33.5862   32.2144    4.5277 H         1 UNK         0.3204 
    126 H126       35.0452   31.8722    7.0298 H         1 UNK         0.0748 
    127 H127       36.9736   32.6574    5.6614 H         1 UNK         0.0771 
    128 H128       36.0091   32.5471    4.1958 H         1 UNK         0.0771 
    129 H129       35.5908   33.7167    5.4491 H         1 UNK         0.0771 
    130 H130       34.1864   29.7300    4.4538 H         1 UNK         0.2980 
    131 H131       36.5233   27.9495    4.8525 H         1 UNK         0.0545 
    132 H132       36.1804   25.7185    5.4809 H         1 UNK         0.3459 
    133 H133       34.7094   25.2528    6.2960 H         1 UNK         0.3459 
    134 H134       34.4146   28.1210    2.6589 H         1 UNK         0.0616 
    135 H135       36.0742   28.5794    2.5434 H         1 UNK         0.0616 
    136 H136       34.2015   26.7477    0.7595 H         1 UNK         0.0634 
    137 H137       34.9351   25.1975    0.4697 H         1 UNK         0.0634 
@<TRIPOS>BOND
     1    1    2 1    
     2    1   72 1    
     3    1   73 1    
     4    1   74 1    
     5    2    3 2    
     6    2    4 am   BACKBONE|DICT|INTERRES
     7    4    5 1    
     8    4   75 1    
     9    5    6 1    
    10    5   35 1    
    11    5   76 1    
    12    6    7 1    
    13    6   77 1    
    14    6   78 1    
    15    7    8 1    
    16    8    9 1    
    17    8   79 1    
    18    8   80 1    
    19    9   10 ar   
    20    9   14 ar   
    21   10   11 ar   
    22   10   81 1    
    23   11   12 ar   
    24   11   71 1    
    25   12   13 ar   
    26   12   82 1    
    27   13   14 ar   
    28   13   15 1    
    29   14   83 1    
    30   15   16 1    
    31   15   84 1    
    32   15   85 1    
    33   16   17 1    
    34   17   18 1    
    35   17   86 1    
    36   17   87 1    
    37   18   19 1    
    38   18   37 1    
    39   18   88 1    
    40   19   20 am   BACKBONE|DICT|INTERRES
    41   19   89 1    
    42   20   21 2    
    43   20   22 1    
    44   22   23 1    
    45   22   24 1    
    46   22   90 1    
    47   23   91 1    
    48   23   92 1    
    49   23   93 1    
    50   24   25 am   BACKBONE|DICT|INTERRES
    51   24   94 1    
    52   25   26 2    
    53   25   27 1    
    54   27   28 1    
    55   27   29 1    
    56   27   95 1    
    57   28   96 1    
    58   28   97 1    
    59   28   98 1    
    60   29   30 am   BACKBONE|DICT|INTERRES
    61   29   99 1    
    62   30   31 2    
    63   30   32 1    
    64   32   33 1    
    65   32   34 1    
    66   32  100 1    
    67   33  101 1    
    68   33  102 1    
    69   33  103 1    
    70   34   35 am   BACKBONE|DICT|INTERRES
    71   34  104 1    
    72   35   36 2    
    73   37   38 2    
    74   37   39 am   BACKBONE|DICT|INTERRES
    75   39   40 1    
    76   39  105 1    
    77   40   41 1    
    78   40   42 1    
    79   40  106 1    
    80   41  107 1    
    81   41  108 1    
    82   41  109 1    
    83   42   43 2    
    84   42   44 am   BACKBONE|DICT|INTERRES
    85   44   45 1    
    86   44  110 1    
    87   45   46 1    
    88   45   47 1    
    89   45  111 1    
    90   46  112 1    
    91   46  113 1    
    92   46  114 1    
    93   47   48 2    
    94   47   49 am   BACKBONE|DICT|INTERRES
    95   49   50 1    
    96   49  115 1    
    97   50   51 1    
    98   50   52 1    
    99   50  116 1    
   100   51  117 1    
   101   51  118 1    
   102   51  119 1    
   103   52   53 2    
   104   52   54 am   BACKBONE|DICT|INTERRES
   105   54   55 1    
   106   54  120 1    
   107   55   56 1    
   108   55   57 1    
   109   55  121 1    
   110   56  122 1    
   111   56  123 1    
   112   56  124 1    
   113   57   58 2    
   114   57   59 am   BACKBONE|DICT|INTERRES
   115   59   60 1    
   116   59  125 1    
   117   60   61 1    
   118   60   62 1    
   119   60  126 1    
   120   61  127 1    
   121   61  128 1    
   122   61  129 1    
   123   62   63 2    
   124   62   64 am   BACKBONE|DICT|INTERRES
   125   64   65 1    
   126   64  130 1    
   127   65   66 1    
   128   65   69 1    
   129   65  131 1    
   130   66   67 am   BACKBONE|DICT|INTERRES
   131   66   68 2    
   132   67  132 1    
   133   67  133 1    
   134   69   70 1    
   135   69  134 1    
   136   69  135 1    
   137   70   71 1    
   138   71  136 1    
   139   71  137 1    
@<TRIPOS>SUBSTRUCTURE
     1 UNK         1 GROUP             0       ****    0 ROOT    
