@<TRIPOS>MOLECULE
3R136
137   139    1
SMALL
USER_CHARGES


@<TRIPOS>ATOM
      1 CA         27.3033   18.7185    3.4184 C.3       0 UNK        -0.1979 
      2 C          27.9957   19.7984    2.5994 C.2       0 UNK         0.4864 
      3 O          28.0646   20.9452    3.0431 O.2       0 UNK        -0.5359 
      4 N          28.5105   19.4322    1.4166 N.am      1 UNK        -0.4318 
      5 CA         29.1697   20.3119    0.4427 C.3       1 UNK         0.0824 
      6 C6         30.4570   20.9812    1.0075 C.3       12 UNK        -0.0944 
      7 S7         31.6934   21.3742   -0.2802 S.3       12 UNK        -0.2672 
      8 C8         33.0357   22.1148    0.7039 C.3       12 UNK         0.0333 
      9 C9         32.6095   23.4251    1.3501 C.ar      12 UNK        -0.0807 
     10 C10        32.6778   24.6254    0.6367 C.ar      12 UNK        -0.0894 
     11 C11        32.2664   25.8227    1.2300 C.ar      12 UNK        -0.0804 
     12 C12        31.7929   25.8146    2.5445 C.ar      12 UNK        -0.0824 
     13 C13        31.6916   24.6153    3.2616 C.ar      12 UNK        -0.0762 
     14 C14        32.1275   23.4314    2.6615 C.ar      12 UNK        -0.0782 
     15 C15        31.1052   24.5334    4.6721 C.3       12 UNK         0.0230 
     16 S16        30.0439   25.9271    5.1895 S.3       12 UNK        -0.2608 
     17 C17        28.7536   25.9868    3.8906 C.3       12 UNK        -0.0989 
     18 CA         28.5894   27.4324    3.3443 C.3       5 UNK         0.0716 
     19 N          28.3712   27.4761    1.8911 N.am      5 UNK        -0.4135 
     20 C          28.4954   28.5800    1.1323 C.2       4 UNK         0.5031 
     21 O          28.8999   29.6564    1.5683 O.2       4 UNK        -0.5229 
     22 CA         28.0219   28.5183   -0.3333 C.3       4 UNK         0.0329 
     23 CB         29.2202   28.3956   -1.2878 C.3       4 UNK        -0.2001 
     24 N          27.0719   27.4423   -0.6213 N.am      4 UNK        -0.4303 
     25 C          25.9037   27.2171   -0.0009 C.2       3 UNK         0.5044 
     26 O          25.4308   27.9675    0.8532 O.2       3 UNK        -0.5152 
     27 CA         25.1739   25.9031   -0.3456 C.3       3 UNK         0.0319 
     28 CB         23.9447   26.1867   -1.2235 C.3       3 UNK        -0.2001 
     29 N          26.0232   24.9041   -1.0111 N.am      3 UNK        -0.4354 
     30 C          27.1126   24.3293   -0.4790 C.2       2 UNK         0.4964 
     31 O          27.5238   24.5573    0.6621 O.2       2 UNK        -0.5047 
     32 CA         27.9331   23.4519   -1.4365 C.3       2 UNK         0.0288 
     33 CB         28.9270   24.3222   -2.2257 C.3       2 UNK        -0.2113 
     34 N          28.6856   22.4154   -0.7358 N.am      2 UNK        -0.4145 
     35 C          28.1688   21.2993   -0.2093 C.2       1 UNK         0.5006 
     36 O          26.9700   21.0104   -0.2772 O.2       1 UNK        -0.5103 
     37 C          27.5685   28.2586    4.1697 C.2       5 UNK         0.5055 
     38 O          27.7389   28.3782    5.3829 O.2       5 UNK        -0.5220 
     39 N          26.5635   28.8733    3.5226 N.am      6 UNK        -0.4450 
     40 CA         25.7883   29.9883    4.0796 C.3       6 UNK         0.0367 
     41 CB         24.6810   30.3852    3.0914 C.3       6 UNK        -0.1929 
     42 C          26.6700   31.2088    4.4248 C.2       6 UNK         0.5070 
     43 O          26.3726   31.9155    5.3878 O.2       6 UNK        -0.5237 
     44 N          27.7639   31.3984    3.6733 N.am      7 UNK        -0.4739 
     45 CA         28.8773   32.2836    4.0014 C.3       7 UNK         0.0276 
     46 CB         29.2324   33.1204    2.7584 C.3       7 UNK        -0.1927 
     47 C          30.0388   31.3875    4.4582 C.2       7 UNK         0.5013 
     48 O          30.9977   31.1935    3.7094 O.2       7 UNK        -0.5193 
     49 N          29.8881   30.7964    5.6526 N.am      8 UNK        -0.4253 
     50 CA         30.7667   29.7716    6.2287 C.3       8 UNK         0.0242 
     51 CB         30.3034   29.4488    7.6579 C.3       8 UNK        -0.2000 
     52 C          32.2537   30.1599    6.2208 C.2       8 UNK         0.4948 
     53 O          32.5912   31.2835    6.6007 O.2       8 UNK        -0.5275 
     54 N          33.1017   29.2335    5.7525 N.am      9 UNK        -0.4246 
     55 CA         34.5547   29.3359    5.5389 C.3       9 UNK         0.0261 
     56 CB         35.3020   29.6073    6.8596 C.3       9 UNK        -0.1959 
     57 C          34.9896   30.3313    4.4428 C.2       9 UNK         0.5033 
     58 O          35.9735   30.0593    3.7536 O.2       9 UNK        -0.5390 
     59 N          34.2721   31.4514    4.2931 N.am      10 UNK        -0.4215 
     60 CA         34.4936   32.4690    3.2649 C.3       10 UNK         0.0240 
     61 CB         33.7156   33.7432    3.6332 C.3       10 UNK        -0.1982 
     62 C          34.1068   31.9852    1.8576 C.2       10 UNK         0.4970 
     63 O          34.8266   32.2827    0.9037 O.2       10 UNK        -0.4916 
     64 N          32.9809   31.2649    1.7607 N.am      11 UNK        -0.4279 
     65 CA         32.3905   30.7143    0.5293 C.3       11 UNK         0.1003 
     66 C          31.8525   31.7857   -0.4684 C.2       11 UNK         0.5709 
     67 N          31.6629   33.0355   -0.0611 N.am      11 UNK        -0.7358 
     68 O          31.5702   31.4782   -1.6240 O.2       11 UNK        -0.4999 
     69 C69        33.2872   29.6403   -0.1552 C.3       12 UNK        -0.0954 
     70 S70        33.6383   28.2159    0.9300 S.3       12 UNK        -0.2268 
     71 C71        32.2756   27.1202    0.4395 C.3       12 UNK         0.0203 
     72 H72        27.3250   17.7498    2.9193 H         1 UNK         0.0888 
     73 H73        27.7911   18.6116    4.3868 H         1 UNK         0.0888 
     74 H74        26.2615   18.9884    3.5891 H         1 UNK         0.0888 
     75 H75        28.3875   18.4775    1.1090 H         1 UNK         0.3017 
     76 H76        29.4737   19.6424   -0.3635 H         1 UNK         0.0873 
     77 H77        30.1999   21.8788    1.5716 H         1 UNK         0.0745 
     78 H78        30.9433   20.3107    1.7180 H         1 UNK         0.0745 
     79 H79        33.3665   21.4019    1.4610 H         1 UNK         0.0705 
     80 H80        33.8949   22.2885    0.0543 H         1 UNK         0.0705 
     81 H81        33.0359   24.6227   -0.3838 H         1 UNK         0.1334 
     82 H82        31.4822   26.7476    2.9899 H         1 UNK         0.1417 
     83 H83        32.0630   22.5004    3.2088 H         1 UNK         0.1562 
     84 H84        31.9274   24.4461    5.3834 H         1 UNK         0.0748 
     85 H85        30.5170   23.6189    4.7669 H         1 UNK         0.0748 
     86 H86        27.8172   25.5948    4.2927 H         1 UNK         0.0940 
     87 H87        29.0272   25.3006    3.0876 H         1 UNK         0.0940 
     88 H88        29.5373   27.9549    3.4897 H         1 UNK         0.0703 
     89 H89        28.0300   26.6243    1.4613 H         1 UNK         0.3081 
     90 H90        27.5144   29.4625   -0.5410 H         1 UNK         0.0719 
     91 H91        29.7161   27.4294   -1.1931 H         1 UNK         0.0809 
     92 H92        28.9116   28.5119   -2.3268 H         1 UNK         0.0809 
     93 H93        29.9633   29.1687   -1.0878 H         1 UNK         0.0809 
     94 H94        27.3598   26.7690   -1.3149 H         1 UNK         0.2990 
     95 H95        24.8312   25.4707    0.5968 H         1 UNK         0.0690 
     96 H96        23.3661   25.2801   -1.4024 H         1 UNK         0.0788 
     97 H97        24.2262   26.6039   -2.1912 H         1 UNK         0.0788 
     98 H98        23.2777   26.9033   -0.7416 H         1 UNK         0.0788 
     99 H99        25.7715   24.6717   -1.9618 H         1 UNK         0.2993 
    100 H100       27.2528   22.9645   -2.1387 H         1 UNK         0.0949 
    101 H101       29.5033   23.7231   -2.9314 H         1 UNK         0.0767 
    102 H102       28.4111   25.0892   -2.8047 H         1 UNK         0.0767 
    103 H103       29.6329   24.8280   -1.5648 H         1 UNK         0.0767 
    104 H104       29.6788   22.5711   -0.6215 H         1 UNK         0.3013 
    105 H105       26.4096   28.6656    2.5414 H         1 UNK         0.3121 
    106 H106       25.3206   29.6436    5.0042 H         1 UNK         0.0774 
    107 H107       25.0921   30.7157    2.1365 H         1 UNK         0.0815 
    108 H108       24.0770   31.2021    3.4887 H         1 UNK         0.0815 
    109 H109       24.0081   29.5505    2.8938 H         1 UNK         0.0815 
    110 H110       27.9592   30.7411    2.9222 H         1 UNK         0.2987 
    111 H111       28.6222   32.9626    4.8180 H         1 UNK         0.0949 
    112 H112       29.4839   32.4891    1.9048 H         1 UNK         0.0806 
    113 H113       28.4016   33.7615    2.4642 H         1 UNK         0.0806 
    114 H114       30.0891   33.7661    2.9540 H         1 UNK         0.0806 
    115 H115       29.0495   31.0024    6.1759 H         1 UNK         0.3010 
    116 H116       30.6381   28.8760    5.6189 H         1 UNK         0.0829 
    117 H117       30.3605   30.3238    8.3068 H         1 UNK         0.0813 
    118 H118       29.2753   29.0858    7.6687 H         1 UNK         0.0813 
    119 H119       30.9235   28.6696    8.1033 H         1 UNK         0.0813 
    120 H120       32.7011   28.3564    5.4492 H         1 UNK         0.3038 
    121 H121       34.8628   28.3489    5.1897 H         1 UNK         0.0769 
    122 H122       36.3817   29.5678    6.7090 H         1 UNK         0.0811 
    123 H123       35.0701   30.5917    7.2669 H         1 UNK         0.0811 
    124 H124       35.0533   28.8635    7.6165 H         1 UNK         0.0811 
    125 H125       33.5024   31.5982    4.9411 H         1 UNK         0.3204 
    126 H126       35.5585   32.7109    3.2525 H         1 UNK         0.0748 
    127 H127       33.8667   34.5238    2.8863 H         1 UNK         0.0771 
    128 H128       32.6430   33.5572    3.7019 H         1 UNK         0.0771 
    129 H129       34.0460   34.1444    4.5916 H         1 UNK         0.0771 
    130 H130       32.4058   31.1426    2.5933 H         1 UNK         0.2980 
    131 H131       31.4887   30.2032    0.8663 H         1 UNK         0.0545 
    132 H132       31.3055   33.7169   -0.7113 H         1 UNK         0.3459 
    133 H133       31.8792   33.3005    0.8852 H         1 UNK         0.3459 
    134 H134       32.8191   29.2659   -1.0671 H         1 UNK         0.0616 
    135 H135       34.2366   30.0750   -0.4698 H         1 UNK         0.0616 
    136 H136       32.3396   26.9161   -0.6305 H         1 UNK         0.0634 
    137 H137       31.3331   27.6419    0.6033 H         1 UNK         0.0634 
@<TRIPOS>BOND
     1    1    2 1    
     2    1   72 1    
     3    1   73 1    
     4    1   74 1    
     5    2    3 2    
     6    2    4 am   BACKBONE|DICT|INTERRES
     7    4    5 1    
     8    4   75 1    
     9    5    6 1    
    10    5   35 1    
    11    5   76 1    
    12    6    7 1    
    13    6   77 1    
    14    6   78 1    
    15    7    8 1    
    16    8    9 1    
    17    8   79 1    
    18    8   80 1    
    19    9   10 ar   
    20    9   14 ar   
    21   10   11 ar   
    22   10   81 1    
    23   11   12 ar   
    24   11   71 1    
    25   12   13 ar   
    26   12   82 1    
    27   13   14 ar   
    28   13   15 1    
    29   14   83 1    
    30   15   16 1    
    31   15   84 1    
    32   15   85 1    
    33   16   17 1    
    34   17   18 1    
    35   17   86 1    
    36   17   87 1    
    37   18   19 1    
    38   18   37 1    
    39   18   88 1    
    40   19   20 am   BACKBONE|DICT|INTERRES
    41   19   89 1    
    42   20   21 2    
    43   20   22 1    
    44   22   23 1    
    45   22   24 1    
    46   22   90 1    
    47   23   91 1    
    48   23   92 1    
    49   23   93 1    
    50   24   25 am   BACKBONE|DICT|INTERRES
    51   24   94 1    
    52   25   26 2    
    53   25   27 1    
    54   27   28 1    
    55   27   29 1    
    56   27   95 1    
    57   28   96 1    
    58   28   97 1    
    59   28   98 1    
    60   29   30 am   BACKBONE|DICT|INTERRES
    61   29   99 1    
    62   30   31 2    
    63   30   32 1    
    64   32   33 1    
    65   32   34 1    
    66   32  100 1    
    67   33  101 1    
    68   33  102 1    
    69   33  103 1    
    70   34   35 am   BACKBONE|DICT|INTERRES
    71   34  104 1    
    72   35   36 2    
    73   37   38 2    
    74   37   39 am   BACKBONE|DICT|INTERRES
    75   39   40 1    
    76   39  105 1    
    77   40   41 1    
    78   40   42 1    
    79   40  106 1    
    80   41  107 1    
    81   41  108 1    
    82   41  109 1    
    83   42   43 2    
    84   42   44 am   BACKBONE|DICT|INTERRES
    85   44   45 1    
    86   44  110 1    
    87   45   46 1    
    88   45   47 1    
    89   45  111 1    
    90   46  112 1    
    91   46  113 1    
    92   46  114 1    
    93   47   48 2    
    94   47   49 am   BACKBONE|DICT|INTERRES
    95   49   50 1    
    96   49  115 1    
    97   50   51 1    
    98   50   52 1    
    99   50  116 1    
   100   51  117 1    
   101   51  118 1    
   102   51  119 1    
   103   52   53 2    
   104   52   54 am   BACKBONE|DICT|INTERRES
   105   54   55 1    
   106   54  120 1    
   107   55   56 1    
   108   55   57 1    
   109   55  121 1    
   110   56  122 1    
   111   56  123 1    
   112   56  124 1    
   113   57   58 2    
   114   57   59 am   BACKBONE|DICT|INTERRES
   115   59   60 1    
   116   59  125 1    
   117   60   61 1    
   118   60   62 1    
   119   60  126 1    
   120   61  127 1    
   121   61  128 1    
   122   61  129 1    
   123   62   63 2    
   124   62   64 am   BACKBONE|DICT|INTERRES
   125   64   65 1    
   126   64  130 1    
   127   65   66 1    
   128   65   69 1    
   129   65  131 1    
   130   66   67 am   BACKBONE|DICT|INTERRES
   131   66   68 2    
   132   67  132 1    
   133   67  133 1    
   134   69   70 1    
   135   69  134 1    
   136   69  135 1    
   137   70   71 1    
   138   71  136 1    
   139   71  137 1    
@<TRIPOS>SUBSTRUCTURE
     1 UNK         1 GROUP             0       ****    0 ROOT    
