@<TRIPOS>MOLECULE
3R136
137   139    1
SMALL
USER_CHARGES


@<TRIPOS>ATOM
      1 CA         27.0716   28.5932    0.0684 C.3       0 UNK        -0.1979 
      2 C          27.7290   27.5248   -0.7920 C.2       0 UNK         0.4864 
      3 O          27.8337   27.6981   -2.0065 O.2       0 UNK        -0.5359 
      4 N          28.1372   26.4060   -0.1779 N.am      1 UNK        -0.4318 
      5 CA         28.7521   25.2126   -0.7785 C.3       1 UNK         0.0824 
      6 C6         30.0233   25.5146   -1.6160 C.3       12 UNK        -0.0944 
      7 S7         31.0289   24.0254   -1.9261 S.3       12 UNK        -0.2672 
      8 C8         32.5957   24.4399   -1.0950 C.3       12 UNK         0.0333 
      9 C9         32.5200   24.4093    0.4290 C.ar      12 UNK        -0.0807 
     10 C10        33.1100   25.4393    1.1690 C.ar      12 UNK        -0.0894 
     11 C11        33.1571   25.3768    2.5643 C.ar      12 UNK        -0.0804 
     12 C12        32.5953   24.2793    3.2218 C.ar      12 UNK        -0.0824 
     13 C13        31.9860   23.2490    2.4990 C.ar      12 UNK        -0.0762 
     14 C14        31.9524   23.3199    1.1023 C.ar      12 UNK        -0.0782 
     15 C15        31.4307   22.0272    3.2224 C.3       12 UNK         0.0230 
     16 S16        29.6366   22.1344    3.5260 S.3       12 UNK        -0.2608 
     17 C17        29.5380   23.4988    4.7332 C.3       12 UNK        -0.0989 
     18 CA         28.8306   24.7282    4.1123 C.3       5 UNK         0.0716 
     19 N          27.3848   24.5066    3.9859 N.am      5 UNK        -0.4135 
     20 C          26.5737   25.1587    3.1463 C.2       4 UNK         0.5031 
     21 O          26.9745   25.9832    2.3185 O.2       4 UNK        -0.5229 
     22 CA         25.0667   24.9120    3.3227 C.3       4 UNK         0.0329 
     23 CB         24.5283   25.7616    4.4863 C.3       4 UNK        -0.2001 
     24 N          24.3247   25.2580    2.1103 N.am      4 UNK        -0.4303 
     25 C          24.2580   24.4926    1.0145 C.2       3 UNK         0.5044 
     26 O          24.7347   23.3583    0.9509 O.2       3 UNK        -0.5152 
     27 CA         23.5525   25.0815   -0.2218 C.3       3 UNK         0.0319 
     28 CB         22.9599   26.4905   -0.0065 C.3       3 UNK        -0.2001 
     29 N          24.5246   25.1417   -1.3085 N.am      3 UNK        -0.4354 
     30 C          24.6299   24.2694   -2.3196 C.2       2 UNK         0.4964 
     31 O          23.8145   23.3767   -2.5546 O.2       2 UNK        -0.5047 
     32 CA         25.8717   24.4162   -3.2192 C.3       2 UNK         0.0288 
     33 CB         25.5524   25.2842   -4.4471 C.3       2 UNK        -0.2113 
     34 N          27.0142   24.9934   -2.5041 N.am      2 UNK        -0.4145 
     35 C          27.7194   24.3658   -1.5520 C.2       1 UNK         0.5006 
     36 O          27.5554   23.1825   -1.2516 O.2       1 UNK        -0.5103 
     37 C          29.1053   26.0390    4.8822 C.2       5 UNK         0.5055 
     38 O          29.6149   26.0154    6.0031 O.2       5 UNK        -0.5220 
     39 N          28.7295   27.1560    4.2547 N.am      6 UNK        -0.4450 
     40 CA         28.9351   28.5285    4.6973 C.3       6 UNK         0.0367 
     41 CB         27.7329   28.9967    5.5387 C.3       6 UNK        -0.1929 
     42 C          29.1721   29.3733    3.4394 C.2       6 UNK         0.5070 
     43 O          28.3783   30.2576    3.1157 O.2       6 UNK        -0.5237 
     44 N          30.2329   29.0133    2.7082 N.am      7 UNK        -0.4739 
     45 CA         30.6526   29.6280    1.4491 C.3       7 UNK         0.0276 
     46 CB         31.6356   28.6650    0.7611 C.3       7 UNK        -0.1927 
     47 C          31.2879   31.0158    1.6503 C.2       7 UNK         0.5013 
     48 O          31.5077   31.4436    2.7864 O.2       7 UNK        -0.5193 
     49 N          31.6363   31.6697    0.5314 N.am      8 UNK        -0.4253 
     50 CA         32.2751   32.9942    0.4541 C.3       8 UNK         0.0242 
     51 CB         32.4618   33.3727   -1.0246 C.3       8 UNK        -0.2000 
     52 C          33.6098   33.1370    1.2166 C.2       8 UNK         0.4948 
     53 O          34.0201   34.2618    1.5037 O.2       8 UNK        -0.5275 
     54 N          34.2388   32.0067    1.5683 N.am      9 UNK        -0.4246 
     55 CA         35.3711   31.9075    2.4932 C.3       9 UNK         0.0261 
     56 CB         35.9437   30.4813    2.4111 C.3       9 UNK        -0.1959 
     57 C          35.0222   32.2564    3.9578 C.2       9 UNK         0.5033 
     58 O          35.9442   32.4018    4.7614 O.2       9 UNK        -0.5390 
     59 N          33.7223   32.3614    4.2831 N.am      10 UNK        -0.4215 
     60 CA         33.1387   32.6036    5.6079 C.3       10 UNK         0.0240 
     61 CB         33.5850   33.9622    6.1909 C.3       10 UNK        -0.1982 
     62 C          33.3644   31.4183    6.5633 C.2       10 UNK         0.4970 
     63 O          33.6322   31.6184    7.7493 O.2       10 UNK        -0.4916 
     64 N          33.2485   30.2007    6.0185 N.am      11 UNK        -0.4279 
     65 CA         33.4273   28.9309    6.7357 C.3       11 UNK         0.1003 
     66 C          32.2348   28.4977    7.6401 C.2       11 UNK         0.5709 
     67 N          31.1277   29.2302    7.6825 N.am      11 UNK        -0.7358 
     68 O          32.3305   27.4938    8.3421 O.2       11 UNK        -0.4999 
     69 C69        33.9071   27.8085    5.7793 C.3       12 UNK        -0.0954 
     70 S70        32.7696   27.4293    4.4020 S.3       12 UNK        -0.2268 
     71 C71        33.8914   26.4432    3.3632 C.3       12 UNK         0.0203 
     72 H72        26.0015   28.6307   -0.1322 H         1 UNK         0.0888 
     73 H73        27.2124   28.4043    1.1322 H         1 UNK         0.0888 
     74 H74        27.4931   29.5722   -0.1571 H         1 UNK         0.0888 
     75 H75        27.8886   26.2939    0.8047 H         1 UNK         0.3017 
     76 H76        29.0643   24.6108    0.0777 H         1 UNK         0.0873 
     77 H77        29.7689   25.9642   -2.5771 H         1 UNK         0.0745 
     78 H78        30.6374   26.2518   -1.0993 H         1 UNK         0.0745 
     79 H79        32.9351   25.4139   -1.4514 H         1 UNK         0.0705 
     80 H80        33.3519   23.7206   -1.4116 H         1 UNK         0.0705 
     81 H81        33.5743   26.2703    0.6559 H         1 UNK         0.1334 
     82 H82        32.6601   24.2206    4.2995 H         1 UNK         0.1417 
     83 H83        31.5106   22.5102    0.5373 H         1 UNK         0.1562 
     84 H84        31.9492   21.8757    4.1705 H         1 UNK         0.0748 
     85 H85        31.6290   21.1333    2.6290 H         1 UNK         0.0748 
     86 H86        30.5433   23.7476    5.0733 H         1 UNK         0.0940 
     87 H87        29.0093   23.1528    5.6230 H         1 UNK         0.0940 
     88 H88        29.2485   24.8762    3.1130 H         1 UNK         0.0703 
     89 H89        26.9789   23.8656    4.6518 H         1 UNK         0.3081 
     90 H90        24.9059   23.8558    3.5501 H         1 UNK         0.0719 
     91 H91        24.6851   26.8277    4.3151 H         1 UNK         0.0809 
     92 H92        23.4605   25.5993    4.6351 H         1 UNK         0.0809 
     93 H93        25.0247   25.5078    5.4240 H         1 UNK         0.0809 
     94 H94        23.9387   26.1895    2.0692 H         1 UNK         0.2990 
     95 H95        22.7342   24.4055   -0.4782 H         1 UNK         0.0690 
     96 H96        22.4609   26.8417   -0.9101 H         1 UNK         0.0788 
     97 H97        23.7227   27.2266    0.2506 H         1 UNK         0.0788 
     98 H98        22.2096   26.4887    0.7856 H         1 UNK         0.0788 
     99 H99        25.2676   25.8148   -1.1997 H         1 UNK         0.2993 
    100 H100       26.1506   23.4176   -3.5630 H         1 UNK         0.0949 
    101 H101       26.4042   25.3392   -5.1253 H         1 UNK         0.0767 
    102 H102       24.7159   24.8692   -5.0113 H         1 UNK         0.0767 
    103 H103       25.2827   26.3024   -4.1633 H         1 UNK         0.0767 
    104 H104       27.2245   25.9755   -2.6651 H         1 UNK         0.3013 
    105 H105       28.2613   27.0492    3.3592 H         1 UNK         0.3121 
    106 H106       29.8391   28.5864    5.3059 H         1 UNK         0.0774 
    107 H107       27.8622   30.0307    5.8605 H         1 UNK         0.0815 
    108 H108       26.8007   28.9410    4.9753 H         1 UNK         0.0815 
    109 H109       27.6190   28.3887    6.4362 H         1 UNK         0.0815 
    110 H110       30.8389   28.2921    3.0760 H         1 UNK         0.2987 
    111 H111       29.7722   29.7511    0.8160 H         1 UNK         0.0949 
    112 H112       32.5707   28.5799    1.3163 H         1 UNK         0.0806 
    113 H113       31.2087   27.6660    0.6779 H         1 UNK         0.0806 
    114 H114       31.8813   28.9913   -0.2499 H         1 UNK         0.0806 
    115 H115       31.4299   31.2335   -0.3560 H         1 UNK         0.3010 
    116 H116       31.5822   33.7083    0.9039 H         1 UNK         0.0829 
    117 H117       31.5092   33.3933   -1.5544 H         1 UNK         0.0813 
    118 H118       32.9032   34.3658   -1.1222 H         1 UNK         0.0813 
    119 H119       33.1201   32.6724   -1.5403 H         1 UNK         0.0813 
    120 H120       33.8312   31.1351    1.2649 H         1 UNK         0.3038 
    121 H121       36.1393   32.6109    2.1650 H         1 UNK         0.0769 
    122 H122       36.8204   30.3745    3.0516 H         1 UNK         0.0811 
    123 H123       36.2566   30.2351    1.3962 H         1 UNK         0.0811 
    124 H124       35.2158   29.7343    2.7310 H         1 UNK         0.0811 
    125 H125       33.0340   32.1659    3.5577 H         1 UNK         0.3204 
    126 H126       32.0603   32.6585    5.4506 H         1 UNK         0.0748 
    127 H127       33.0267   34.1987    7.0975 H         1 UNK         0.0771 
    128 H128       34.6431   33.9664    6.4537 H         1 UNK         0.0771 
    129 H129       33.4114   34.7729    5.4832 H         1 UNK         0.0771 
    130 H130       33.0024   30.1228    5.0430 H         1 UNK         0.2980 
    131 H131       34.2478   29.0880    7.4385 H         1 UNK         0.0545 
    132 H132       31.0520   30.0762    7.1439 H         1 UNK         0.3459 
    133 H133       30.3718   28.9386    8.2809 H         1 UNK         0.3459 
    134 H134       34.8692   28.0976    5.3526 H         1 UNK         0.0616 
    135 H135       34.0970   26.8877    6.3339 H         1 UNK         0.0616 
    136 H136       34.4456   27.1157    2.7067 H         1 UNK         0.0634 
    137 H137       34.6343   25.9475    3.9900 H         1 UNK         0.0634 
@<TRIPOS>BOND
     1    1    2 1    
     2    1   72 1    
     3    1   73 1    
     4    1   74 1    
     5    2    3 2    
     6    2    4 am   BACKBONE|DICT|INTERRES
     7    4    5 1    
     8    4   75 1    
     9    5    6 1    
    10    5   35 1    
    11    5   76 1    
    12    6    7 1    
    13    6   77 1    
    14    6   78 1    
    15    7    8 1    
    16    8    9 1    
    17    8   79 1    
    18    8   80 1    
    19    9   10 ar   
    20    9   14 ar   
    21   10   11 ar   
    22   10   81 1    
    23   11   12 ar   
    24   11   71 1    
    25   12   13 ar   
    26   12   82 1    
    27   13   14 ar   
    28   13   15 1    
    29   14   83 1    
    30   15   16 1    
    31   15   84 1    
    32   15   85 1    
    33   16   17 1    
    34   17   18 1    
    35   17   86 1    
    36   17   87 1    
    37   18   19 1    
    38   18   37 1    
    39   18   88 1    
    40   19   20 am   BACKBONE|DICT|INTERRES
    41   19   89 1    
    42   20   21 2    
    43   20   22 1    
    44   22   23 1    
    45   22   24 1    
    46   22   90 1    
    47   23   91 1    
    48   23   92 1    
    49   23   93 1    
    50   24   25 am   BACKBONE|DICT|INTERRES
    51   24   94 1    
    52   25   26 2    
    53   25   27 1    
    54   27   28 1    
    55   27   29 1    
    56   27   95 1    
    57   28   96 1    
    58   28   97 1    
    59   28   98 1    
    60   29   30 am   BACKBONE|DICT|INTERRES
    61   29   99 1    
    62   30   31 2    
    63   30   32 1    
    64   32   33 1    
    65   32   34 1    
    66   32  100 1    
    67   33  101 1    
    68   33  102 1    
    69   33  103 1    
    70   34   35 am   BACKBONE|DICT|INTERRES
    71   34  104 1    
    72   35   36 2    
    73   37   38 2    
    74   37   39 am   BACKBONE|DICT|INTERRES
    75   39   40 1    
    76   39  105 1    
    77   40   41 1    
    78   40   42 1    
    79   40  106 1    
    80   41  107 1    
    81   41  108 1    
    82   41  109 1    
    83   42   43 2    
    84   42   44 am   BACKBONE|DICT|INTERRES
    85   44   45 1    
    86   44  110 1    
    87   45   46 1    
    88   45   47 1    
    89   45  111 1    
    90   46  112 1    
    91   46  113 1    
    92   46  114 1    
    93   47   48 2    
    94   47   49 am   BACKBONE|DICT|INTERRES
    95   49   50 1    
    96   49  115 1    
    97   50   51 1    
    98   50   52 1    
    99   50  116 1    
   100   51  117 1    
   101   51  118 1    
   102   51  119 1    
   103   52   53 2    
   104   52   54 am   BACKBONE|DICT|INTERRES
   105   54   55 1    
   106   54  120 1    
   107   55   56 1    
   108   55   57 1    
   109   55  121 1    
   110   56  122 1    
   111   56  123 1    
   112   56  124 1    
   113   57   58 2    
   114   57   59 am   BACKBONE|DICT|INTERRES
   115   59   60 1    
   116   59  125 1    
   117   60   61 1    
   118   60   62 1    
   119   60  126 1    
   120   61  127 1    
   121   61  128 1    
   122   61  129 1    
   123   62   63 2    
   124   62   64 am   BACKBONE|DICT|INTERRES
   125   64   65 1    
   126   64  130 1    
   127   65   66 1    
   128   65   69 1    
   129   65  131 1    
   130   66   67 am   BACKBONE|DICT|INTERRES
   131   66   68 2    
   132   67  132 1    
   133   67  133 1    
   134   69   70 1    
   135   69  134 1    
   136   69  135 1    
   137   70   71 1    
   138   71  136 1    
   139   71  137 1    
@<TRIPOS>SUBSTRUCTURE
     1 UNK         1 GROUP             0       ****    0 ROOT    
