@<TRIPOS>MOLECULE
3R136
137   139    1
SMALL
USER_CHARGES


@<TRIPOS>ATOM
      1 CA         27.4658   19.4336   -2.4934 C.3       0 UNK        -0.1979 
      2 C          27.9643   20.8317   -2.1602 C.2       0 UNK         0.4864 
      3 O          27.6389   21.7845   -2.8693 O.2       0 UNK        -0.5359 
      4 N          28.7385   20.9692   -1.0751 N.am      1 UNK        -0.4318 
      5 CA         29.3317   22.2317   -0.6134 C.3       1 UNK         0.0824 
      6 C6         30.6206   21.9953    0.2132 C.3       12 UNK        -0.0944 
      7 S7         30.3609   21.0418    1.7497 S.3       12 UNK        -0.2672 
      8 C8         31.8053   21.5530    2.7359 C.3       12 UNK         0.0333 
      9 C9         31.6677   22.9730    3.2691 C.ar      12 UNK        -0.0807 
     10 C10        32.3731   24.0270    2.6767 C.ar      12 UNK        -0.0894 
     11 C11        32.2529   25.3303    3.1707 C.ar      12 UNK        -0.0804 
     12 C12        31.4341   25.5678    4.2757 C.ar      12 UNK        -0.0824 
     13 C13        30.7098   24.5283    4.8658 C.ar      12 UNK        -0.0762 
     14 C14        30.8379   23.2300    4.3648 C.ar      12 UNK        -0.0782 
     15 C15        29.7970   24.8142    6.0495 C.3       12 UNK         0.0230 
     16 S16        28.0106   24.8817    5.6487 S.3       12 UNK        -0.2608 
     17 C17        27.8809   25.2271    3.8571 C.3       12 UNK        -0.0989 
     18 CA         28.3014   26.6544    3.4265 C.3       5 UNK         0.0716 
     19 N          28.6977   26.6754    2.0113 N.am      5 UNK        -0.4135 
     20 C          29.2727   27.7000    1.3646 C.2       4 UNK         0.5031 
     21 O          29.5654   28.7646    1.9022 O.2       4 UNK        -0.5229 
     22 CA         29.5081   27.5326   -0.1449 C.3       4 UNK         0.0329 
     23 CB         30.8152   26.7741   -0.4288 C.3       4 UNK        -0.2001 
     24 N          28.3856   26.8340   -0.7720 N.am      4 UNK        -0.4303 
     25 C          27.2600   27.4316   -1.1885 C.2       3 UNK         0.5044 
     26 O          27.0885   28.6501   -1.1768 O.2       3 UNK        -0.5152 
     27 CA         26.1219   26.5215   -1.6889 C.3       3 UNK         0.0319 
     28 CB         26.2220   26.3228   -3.2095 C.3       3 UNK        -0.2001 
     29 N          26.0854   25.2117   -1.0323 N.am      3 UNK        -0.4354 
     30 C          25.8259   25.0164    0.2691 C.2       2 UNK         0.4964 
     31 O          25.5454   25.9214    1.0546 O.2       2 UNK        -0.5047 
     32 CA         25.9622   23.5752    0.7956 C.3       2 UNK         0.0288 
     33 CB         24.6379   22.8144    0.6260 C.3       2 UNK        -0.2113 
     34 N          27.0482   22.8049    0.1767 N.am      2 UNK        -0.4145 
     35 C          28.3364   23.1763    0.1008 C.2       1 UNK         0.5006 
     36 O          28.7492   24.2462    0.5504 O.2       1 UNK        -0.5103 
     37 C          27.2523   27.7286    3.7933 C.2       5 UNK         0.5055 
     38 O          27.2188   28.1768    4.9398 O.2       5 UNK        -0.5220 
     39 N          26.4709   28.1920    2.8076 N.am      6 UNK        -0.4450 
     40 CA         25.6014   29.3691    2.9029 C.3       6 UNK         0.0367 
     41 CB         24.8013   29.5044    1.5979 C.3       6 UNK        -0.1929 
     42 C          26.3468   30.6864    3.2178 C.2       6 UNK         0.5070 
     43 O          25.7151   31.6242    3.7054 O.2       6 UNK        -0.5237 
     44 N          27.6605   30.7387    2.9578 N.am      7 UNK        -0.4739 
     45 CA         28.5549   31.8461    3.2882 C.3       7 UNK         0.0276 
     46 CB         28.7714   32.7194    2.0377 C.3       7 UNK        -0.1927 
     47 C          29.8658   31.2802    3.8607 C.2       7 UNK         0.5013 
     48 O          30.9482   31.6584    3.4100 O.2       7 UNK        -0.5193 
     49 N          29.7451   30.3728    4.8445 N.am      8 UNK        -0.4253 
     50 CA         30.8282   29.5730    5.4414 C.3       8 UNK         0.0242 
     51 CB         30.2472   28.6943    6.5609 C.3       8 UNK        -0.2000 
     52 C          32.0454   30.3494    5.9795 C.2       8 UNK         0.4948 
     53 O          33.1173   29.7604    6.1170 O.2       8 UNK        -0.5275 
     54 N          31.8777   31.6480    6.2609 N.am      9 UNK        -0.4246 
     55 CA         32.9587   32.5718    6.6097 C.3       9 UNK         0.0261 
     56 CB         32.3465   33.8919    7.1068 C.3       9 UNK        -0.1959 
     57 C          33.9460   32.8389    5.4540 C.2       9 UNK         0.5033 
     58 O          35.0607   33.2895    5.7240 O.2       9 UNK        -0.5390 
     59 N          33.5370   32.5753    4.2049 N.am      10 UNK        -0.4215 
     60 CA         34.3275   32.7937    2.9987 C.3       10 UNK         0.0240 
     61 CB         33.9206   34.1385    2.3646 C.3       10 UNK        -0.1982 
     62 C          34.1528   31.6027    2.0449 C.2       10 UNK         0.4970 
     63 O          33.5327   31.7460    0.9895 O.2       10 UNK        -0.4916 
     64 N          34.7194   30.4479    2.4240 N.am      11 UNK        -0.4279 
     65 CA         34.8130   29.2517    1.5648 C.3       11 UNK         0.1003 
     66 C          35.6732   29.4418    0.2786 C.2       11 UNK         0.5709 
     67 N          36.5777   30.4128    0.2173 N.am      11 UNK        -0.7358 
     68 O          35.5130   28.6914   -0.6809 O.2       11 UNK        -0.4999 
     69 C69        35.3093   28.0040    2.3458 C.3       12 UNK        -0.0954 
     70 S70        34.1185   27.3737    3.5721 S.3       12 UNK        -0.2268 
     71 C71        32.9614   26.4877    2.4796 C.3       12 UNK         0.0203 
     72 H72        27.8184   18.6931   -1.7756 H         1 UNK         0.0888 
     73 H73        26.3763   19.4133   -2.4948 H         1 UNK         0.0888 
     74 H74        27.8135   19.1384   -3.4831 H         1 UNK         0.0888 
     75 H75        28.9627   20.1594   -0.5126 H         1 UNK         0.3017 
     76 H76        29.6415   22.7814   -1.5050 H         1 UNK         0.0873 
     77 H77        31.3515   21.4593   -0.3942 H         1 UNK         0.0745 
     78 H78        31.0876   22.9519    0.4500 H         1 UNK         0.0745 
     79 H79        32.7103   21.4490    2.1351 H         1 UNK         0.0705 
     80 H80        31.9178   20.8643    3.5745 H         1 UNK         0.0705 
     81 H81        33.0066   23.8331    1.8220 H         1 UNK         0.1334 
     82 H82        31.3501   26.5722    4.6639 H         1 UNK         0.1417 
     83 H83        30.2817   22.4214    4.8199 H         1 UNK         0.1562 
     84 H84        30.0811   25.7540    6.5221 H         1 UNK         0.0748 
     85 H85        29.9495   24.0495    6.8124 H         1 UNK         0.0748 
     86 H86        26.8496   25.0377    3.5574 H         1 UNK         0.0940 
     87 H87        28.4726   24.4766    3.3306 H         1 UNK         0.0940 
     88 H88        29.1924   26.9340    3.9842 H         1 UNK         0.0703 
     89 H89        28.5608   25.8100    1.4940 H         1 UNK         0.3081 
     90 H90        29.5986   28.5280   -0.5856 H         1 UNK         0.0719 
     91 H91        30.8664   25.8249    0.1061 H         1 UNK         0.0809 
     92 H92        30.9297   26.5651   -1.4925 H         1 UNK         0.0809 
     93 H93        31.6774   27.3695   -0.1288 H         1 UNK         0.0809 
     94 H94        28.4242   25.8223   -0.7583 H         1 UNK         0.2990 
     95 H95        25.1793   27.0288   -1.4716 H         1 UNK         0.0690 
     96 H96        27.1340   25.7936   -3.4893 H         1 UNK         0.0788 
     97 H97        26.2291   27.2823   -3.7288 H         1 UNK         0.0788 
     98 H98        25.3732   25.7558   -3.5926 H         1 UNK         0.0788 
     99 H99        26.3073   24.4077   -1.6028 H         1 UNK         0.2993 
    100 H100       26.1818   23.6358    1.8617 H         1 UNK         0.0949 
    101 H101       24.3823   22.6762   -0.4255 H         1 UNK         0.0767 
    102 H102       24.6823   21.8304    1.0934 H         1 UNK         0.0767 
    103 H103       23.8140   23.3555    1.0940 H         1 UNK         0.0767 
    104 H104       26.7974   21.9152   -0.2282 H         1 UNK         0.3013 
    105 H105       26.4892   27.7087    1.9177 H         1 UNK         0.3121 
    106 H106       24.8992   29.1912    3.7199 H         1 UNK         0.0774 
    107 H107       24.0944   30.3330    1.6576 H         1 UNK         0.0815 
    108 H108       25.4537   29.6942    0.7450 H         1 UNK         0.0815 
    109 H109       24.2265   28.6022    1.3871 H         1 UNK         0.0815 
    110 H110       28.1246   29.9218    2.5668 H         1 UNK         0.2987 
    111 H111       28.1140   32.4661    4.0718 H         1 UNK         0.0949 
    112 H112       29.2368   32.1520    1.2305 H         1 UNK         0.0806 
    113 H113       27.8286   33.1207    1.6663 H         1 UNK         0.0806 
    114 H114       29.4206   33.5676    2.2590 H         1 UNK         0.0806 
    115 H115       28.8075   30.1183    5.1267 H         1 UNK         0.3010 
    116 H116       31.2034   28.9239    4.6478 H         1 UNK         0.0829 
    117 H117       31.0203   28.0708    7.0126 H         1 UNK         0.0813 
    118 H118       29.8088   29.2966    7.3574 H         1 UNK         0.0813 
    119 H119       29.4753   28.0249    6.1871 H         1 UNK         0.0813 
    120 H120       30.9610   32.0480    6.1249 H         1 UNK         0.3038 
    121 H121       33.5293   32.1282    7.4285 H         1 UNK         0.0769 
    122 H122       33.1252   34.5937    7.4089 H         1 UNK         0.0811 
    123 H123       31.7046   33.7316    7.9734 H         1 UNK         0.0811 
    124 H124       31.7528   34.3787    6.3319 H         1 UNK         0.0811 
    125 H125       32.6043   32.1912    4.0492 H         1 UNK         0.3204 
    126 H126       35.3903   32.8442    3.2450 H         1 UNK         0.0748 
    127 H127       34.4801   34.3246    1.4470 H         1 UNK         0.0771 
    128 H128       32.8591   34.1595    2.1134 H         1 UNK         0.0771 
    129 H129       34.1203   34.9703    3.0404 H         1 UNK         0.0771 
    130 H130       35.1817   30.3938    3.3197 H         1 UNK         0.2980 
    131 H131       33.8024   29.0411    1.2095 H         1 UNK         0.0545 
    132 H132       36.7278   31.0276    1.0003 H         1 UNK         0.3459 
    133 H133       37.1237   30.5234   -0.6225 H         1 UNK         0.3459 
    134 H134       35.5482   27.1807    1.6694 H         1 UNK         0.0616 
    135 H135       36.2416   28.2333    2.8647 H         1 UNK         0.0616 
    136 H136       33.4841   26.1311    1.5911 H         1 UNK         0.0634 
    137 H137       32.2136   27.2017    2.1357 H         1 UNK         0.0634 
@<TRIPOS>BOND
     1    1    2 1    
     2    1   72 1    
     3    1   73 1    
     4    1   74 1    
     5    2    3 2    
     6    2    4 am   BACKBONE|DICT|INTERRES
     7    4    5 1    
     8    4   75 1    
     9    5    6 1    
    10    5   35 1    
    11    5   76 1    
    12    6    7 1    
    13    6   77 1    
    14    6   78 1    
    15    7    8 1    
    16    8    9 1    
    17    8   79 1    
    18    8   80 1    
    19    9   10 ar   
    20    9   14 ar   
    21   10   11 ar   
    22   10   81 1    
    23   11   12 ar   
    24   11   71 1    
    25   12   13 ar   
    26   12   82 1    
    27   13   14 ar   
    28   13   15 1    
    29   14   83 1    
    30   15   16 1    
    31   15   84 1    
    32   15   85 1    
    33   16   17 1    
    34   17   18 1    
    35   17   86 1    
    36   17   87 1    
    37   18   19 1    
    38   18   37 1    
    39   18   88 1    
    40   19   20 am   BACKBONE|DICT|INTERRES
    41   19   89 1    
    42   20   21 2    
    43   20   22 1    
    44   22   23 1    
    45   22   24 1    
    46   22   90 1    
    47   23   91 1    
    48   23   92 1    
    49   23   93 1    
    50   24   25 am   BACKBONE|DICT|INTERRES
    51   24   94 1    
    52   25   26 2    
    53   25   27 1    
    54   27   28 1    
    55   27   29 1    
    56   27   95 1    
    57   28   96 1    
    58   28   97 1    
    59   28   98 1    
    60   29   30 am   BACKBONE|DICT|INTERRES
    61   29   99 1    
    62   30   31 2    
    63   30   32 1    
    64   32   33 1    
    65   32   34 1    
    66   32  100 1    
    67   33  101 1    
    68   33  102 1    
    69   33  103 1    
    70   34   35 am   BACKBONE|DICT|INTERRES
    71   34  104 1    
    72   35   36 2    
    73   37   38 2    
    74   37   39 am   BACKBONE|DICT|INTERRES
    75   39   40 1    
    76   39  105 1    
    77   40   41 1    
    78   40   42 1    
    79   40  106 1    
    80   41  107 1    
    81   41  108 1    
    82   41  109 1    
    83   42   43 2    
    84   42   44 am   BACKBONE|DICT|INTERRES
    85   44   45 1    
    86   44  110 1    
    87   45   46 1    
    88   45   47 1    
    89   45  111 1    
    90   46  112 1    
    91   46  113 1    
    92   46  114 1    
    93   47   48 2    
    94   47   49 am   BACKBONE|DICT|INTERRES
    95   49   50 1    
    96   49  115 1    
    97   50   51 1    
    98   50   52 1    
    99   50  116 1    
   100   51  117 1    
   101   51  118 1    
   102   51  119 1    
   103   52   53 2    
   104   52   54 am   BACKBONE|DICT|INTERRES
   105   54   55 1    
   106   54  120 1    
   107   55   56 1    
   108   55   57 1    
   109   55  121 1    
   110   56  122 1    
   111   56  123 1    
   112   56  124 1    
   113   57   58 2    
   114   57   59 am   BACKBONE|DICT|INTERRES
   115   59   60 1    
   116   59  125 1    
   117   60   61 1    
   118   60   62 1    
   119   60  126 1    
   120   61  127 1    
   121   61  128 1    
   122   61  129 1    
   123   62   63 2    
   124   62   64 am   BACKBONE|DICT|INTERRES
   125   64   65 1    
   126   64  130 1    
   127   65   66 1    
   128   65   69 1    
   129   65  131 1    
   130   66   67 am   BACKBONE|DICT|INTERRES
   131   66   68 2    
   132   67  132 1    
   133   67  133 1    
   134   69   70 1    
   135   69  134 1    
   136   69  135 1    
   137   70   71 1    
   138   71  136 1    
   139   71  137 1    
@<TRIPOS>SUBSTRUCTURE
     1 UNK         1 GROUP             0       ****    0 ROOT    
