@<TRIPOS>MOLECULE
3R136
137   139    1
SMALL
USER_CHARGES


@<TRIPOS>ATOM
      1 CA         30.8391   29.2379   -4.7052 C.3       0 UNK        -0.1979 
      2 C          30.2394   28.9407   -3.3397 C.2       0 UNK         0.4864 
      3 O          29.8743   29.8695   -2.6187 O.2       0 UNK        -0.5359 
      4 N          30.1477   27.6552   -2.9773 N.am      1 UNK        -0.4318 
      5 CA         29.5760   27.1745   -1.7156 C.3       1 UNK         0.0824 
      6 C6         29.9016   25.6797   -1.4478 C.3       12 UNK        -0.0944 
      7 S7         31.6682   25.2752   -1.6614 S.3       12 UNK        -0.2672 
      8 C8         31.8139   23.7113   -0.7259 C.3       12 UNK         0.0333 
      9 C9         32.0367   23.8723    0.7786 C.ar      12 UNK        -0.0807 
     10 C10        32.6480   25.0099    1.3188 C.ar      12 UNK        -0.0894 
     11 C11        32.8610   25.1261    2.6940 C.ar      12 UNK        -0.0804 
     12 C12        32.4910   24.0790    3.5385 C.ar      12 UNK        -0.0824 
     13 C13        31.8912   22.9298    3.0163 C.ar      12 UNK        -0.0762 
     14 C14        31.6645   22.8334    1.6390 C.ar      12 UNK        -0.0782 
     15 C15        31.4816   21.7968    3.9455 C.3       12 UNK         0.0230 
     16 S16        29.6798   21.7367    4.1951 S.3       12 UNK        -0.2608 
     17 C17        29.3256   23.4129    4.8281 C.3       12 UNK        -0.0989 
     18 CA         28.7009   24.3615    3.7622 C.3       5 UNK         0.0716 
     19 N          27.3685   23.9129    3.3605 N.am      5 UNK        -0.4135 
     20 C          27.0870   23.1633    2.2860 C.2       4 UNK         0.5031 
     21 O          27.9013   22.8633    1.4121 O.2       4 UNK        -0.5229 
     22 CA         25.6434   22.6433    2.1814 C.3       4 UNK         0.0329 
     23 CB         25.2856   21.7242    3.3635 C.3       4 UNK        -0.2001 
     24 N          24.7060   23.7618    2.1185 N.am      4 UNK        -0.4303 
     25 C          24.3394   24.3671    0.9828 C.2       3 UNK         0.5044 
     26 O          24.5751   23.9208   -0.1422 O.2       3 UNK        -0.5152 
     27 CA         23.6125   25.7230    1.1081 C.3       3 UNK         0.0319 
     28 CB         23.3809   26.1929    2.5641 C.3       3 UNK        -0.2001 
     29 N          24.3098   26.7697    0.3491 N.am      3 UNK        -0.4354 
     30 C          25.6059   27.1009    0.4572 C.2       2 UNK         0.4964 
     31 O          26.3928   26.5812    1.2522 O.2       2 UNK        -0.5047 
     32 CA         26.0960   28.2298   -0.4560 C.3       2 UNK         0.0288 
     33 CB         25.8287   29.5967    0.1921 C.3       2 UNK        -0.2113 
     34 N          27.5313   28.0743   -0.6885 N.am      2 UNK        -0.4145 
     35 C          28.0512   27.4004   -1.7191 C.2       1 UNK         0.5006 
     36 O          27.3799   26.9496   -2.6522 O.2       1 UNK        -0.5103 
     37 C          28.5669   25.7965    4.3013 C.2       5 UNK         0.5055 
     38 O          28.4517   25.9739    5.5162 O.2       5 UNK        -0.5220 
     39 N          28.5402   26.7932    3.4096 N.am      6 UNK        -0.4450 
     40 CA         28.4329   28.2105    3.7543 C.3       6 UNK         0.0367 
     41 CB         26.9652   28.5700    4.0653 C.3       6 UNK        -0.1929 
     42 C          28.9934   29.0869    2.6260 C.2       6 UNK         0.5070 
     43 O          29.2202   28.6052    1.5126 O.2       6 UNK        -0.5237 
     44 N          29.1694   30.3763    2.9410 N.am      7 UNK        -0.4739 
     45 CA         29.5394   31.5086    2.0794 C.3       7 UNK         0.0276 
     46 CB         28.5443   31.6997    0.9205 C.3       7 UNK        -0.1927 
     47 C          30.9836   31.5169    1.5561 C.2       7 UNK         0.5013 
     48 O          31.6073   32.5788    1.5981 O.2       7 UNK        -0.5193 
     49 N          31.4959   30.3732    1.0850 N.am      8 UNK        -0.4253 
     50 CA         32.8282   30.2015    0.4885 C.3       8 UNK         0.0242 
     51 CB         32.8989   28.8116   -0.1662 C.3       8 UNK        -0.2000 
     52 C          33.9669   30.4239    1.5054 C.2       8 UNK         0.4948 
     53 O          34.5058   29.4600    2.0476 O.2       8 UNK        -0.5275 
     54 N          34.2777   31.7020    1.7667 N.am      9 UNK        -0.4246 
     55 CA         35.0678   32.2112    2.8955 C.3       9 UNK         0.0261 
     56 CB         36.5246   31.6990    2.8654 C.3       9 UNK        -0.1959 
     57 C          34.3486   31.9498    4.2347 C.2       9 UNK         0.5033 
     58 O          34.9746   31.5175    5.2047 O.2       9 UNK        -0.5390 
     59 N          33.0278   32.1933    4.2426 N.am      10 UNK        -0.4215 
     60 CA         32.0491   32.0295    5.3294 C.3       10 UNK         0.0240 
     61 CB         32.3962   32.9173    6.5403 C.3       10 UNK        -0.1982 
     62 C          31.7864   30.5758    5.7685 C.2       10 UNK         0.4970 
     63 O          30.6290   30.2360    6.0146 O.2       10 UNK        -0.4916 
     64 N          32.8438   29.7612    5.8551 N.am      11 UNK        -0.4279 
     65 CA         32.8566   28.3481    6.2794 C.3       11 UNK         0.1003 
     66 C          32.6330   28.1297    7.8064 C.2       11 UNK         0.5709 
     67 N          32.6791   29.1629    8.6395 N.am      11 UNK        -0.7358 
     68 O          32.4506   26.9999    8.2540 O.2       11 UNK        -0.4999 
     69 C69        31.9637   27.4094    5.4131 C.3       12 UNK        -0.0954 
     70 S70        32.2137   27.6327    3.6219 S.3       12 UNK        -0.2268 
     71 C71        33.4875   26.3892    3.2570 C.3       12 UNK         0.0203 
     72 H72        30.1242   29.7891   -5.3170 H         1 UNK         0.0888 
     73 H73        31.7359   29.8477   -4.5945 H         1 UNK         0.0888 
     74 H74        31.1117   28.3268   -5.2384 H         1 UNK         0.0888 
     75 H75        30.4603   26.9330   -3.6094 H         1 UNK         0.3017 
     76 H76        30.0153   27.7635   -0.9089 H         1 UNK         0.0873 
     77 H77        29.5998   25.4108   -0.4337 H         1 UNK         0.0745 
     78 H78        29.3352   25.0309   -2.1181 H         1 UNK         0.0745 
     79 H79        32.6576   23.1520   -1.1315 H         1 UNK         0.0705 
     80 H80        30.9251   23.1063   -0.9133 H         1 UNK         0.0705 
     81 H81        32.9642   25.8139    0.6721 H         1 UNK         0.1334 
     82 H82        32.6623   24.1641    4.6027 H         1 UNK         0.1417 
     83 H83        31.1934   21.9452    1.2396 H         1 UNK         0.1562 
     84 H84        31.9738   21.8918    4.9148 H         1 UNK         0.0748 
     85 H85        31.8135   20.8454    3.5274 H         1 UNK         0.0748 
     86 H86        30.2417   23.8414    5.2374 H         1 UNK         0.0940 
     87 H87        28.6516   23.3051    5.6801 H         1 UNK         0.0940 
     88 H88        29.3616   24.4024    2.8934 H         1 UNK         0.0703 
     89 H89        26.6270   24.1529    4.0010 H         1 UNK         0.3081 
     90 H90        25.5692   22.0466    1.2694 H         1 UNK         0.0719 
     91 H91        25.2819   22.2541    4.3163 H         1 UNK         0.0809 
     92 H92        24.3005   21.2773    3.2286 H         1 UNK         0.0809 
     93 H93        26.0023   20.9059    3.4489 H         1 UNK         0.0809 
     94 H94        24.4589   24.2073    2.9894 H         1 UNK         0.2990 
     95 H95        22.6358   25.5914    0.6400 H         1 UNK         0.0690 
     96 H96        22.8338   27.1356    2.5843 H         1 UNK         0.0788 
     97 H97        24.3172   26.3505    3.1015 H         1 UNK         0.0788 
     98 H98        22.7847   25.4724    3.1257 H         1 UNK         0.0788 
     99 H99        23.7523   27.2421   -0.3489 H         1 UNK         0.2993 
    100 H100       25.5545   28.1820   -1.4035 H         1 UNK         0.0949 
    101 H101       24.7629   29.7457    0.3698 H         1 UNK         0.0767 
    102 H102       26.3347   29.6925    1.1525 H         1 UNK         0.0767 
    103 H103       26.1648   30.4096   -0.4516 H         1 UNK         0.0767 
    104 H104       28.1421   28.3365    0.0843 H         1 UNK         0.3013 
    105 H105       28.5967   26.6029    2.4160 H         1 UNK         0.3121 
    106 H106       29.0367   28.4045    4.6417 H         1 UNK         0.0774 
    107 H107       26.8571   29.6245    4.3209 H         1 UNK         0.0815 
    108 H108       26.3126   28.3724    3.2158 H         1 UNK         0.0815 
    109 H109       26.5868   27.9980    4.9122 H         1 UNK         0.0815 
    110 H110       29.0030   30.6279    3.9067 H         1 UNK         0.2987 
    111 H111       29.4487   32.3886    2.7186 H         1 UNK         0.0949 
    112 H112       28.7824   32.5976    0.3486 H         1 UNK         0.0806 
    113 H113       28.5645   30.8630    0.2216 H         1 UNK         0.0806 
    114 H114       27.5256   31.8162    1.2890 H         1 UNK         0.0806 
    115 H115       30.9000   29.5520    1.1299 H         1 UNK         0.3010 
    116 H116       32.9438   30.9443   -0.3038 H         1 UNK         0.0829 
    117 H117       32.2169   28.7375   -1.0118 H         1 UNK         0.0813 
    118 H118       33.9009   28.5990   -0.5411 H         1 UNK         0.0813 
    119 H119       32.6394   28.0282    0.5446 H         1 UNK         0.0813 
    120 H120       33.7199   32.4001    1.2872 H         1 UNK         0.3038 
    121 H121       35.1027   33.2954    2.7778 H         1 UNK         0.0769 
    122 H122       37.1281   32.2068    3.6188 H         1 UNK         0.0811 
    123 H123       36.9907   31.8831    1.8977 H         1 UNK         0.0811 
    124 H124       36.5883   30.6303    3.0719 H         1 UNK         0.0811 
    125 H125       32.6239   32.4972    3.3616 H         1 UNK         0.3204 
    126 H126       31.1066   32.3979    4.9211 H         1 UNK         0.0748 
    127 H127       31.6155   32.8611    7.3002 H         1 UNK         0.0771 
    128 H128       33.3312   32.6177    7.0144 H         1 UNK         0.0771 
    129 H129       32.4892   33.9637    6.2496 H         1 UNK         0.0771 
    130 H130       33.7526   30.1694    5.6507 H         1 UNK         0.2980 
    131 H131       33.8866   28.0303    6.1155 H         1 UNK         0.0545 
    132 H132       32.5463   29.0072    9.6263 H         1 UNK         0.3459 
    133 H133       32.8460   30.0925    8.2911 H         1 UNK         0.3459 
    134 H134       32.1460   26.3634    5.6632 H         1 UNK         0.0616 
    135 H135       30.9113   27.5829    5.6340 H         1 UNK         0.0616 
    136 H136       34.0747   26.1701    4.1498 H         1 UNK         0.0634 
    137 H137       34.1858   26.8080    2.5313 H         1 UNK         0.0634 
@<TRIPOS>BOND
     1    1    2 1    
     2    1   72 1    
     3    1   73 1    
     4    1   74 1    
     5    2    3 2    
     6    2    4 am   BACKBONE|DICT|INTERRES
     7    4    5 1    
     8    4   75 1    
     9    5    6 1    
    10    5   35 1    
    11    5   76 1    
    12    6    7 1    
    13    6   77 1    
    14    6   78 1    
    15    7    8 1    
    16    8    9 1    
    17    8   79 1    
    18    8   80 1    
    19    9   10 ar   
    20    9   14 ar   
    21   10   11 ar   
    22   10   81 1    
    23   11   12 ar   
    24   11   71 1    
    25   12   13 ar   
    26   12   82 1    
    27   13   14 ar   
    28   13   15 1    
    29   14   83 1    
    30   15   16 1    
    31   15   84 1    
    32   15   85 1    
    33   16   17 1    
    34   17   18 1    
    35   17   86 1    
    36   17   87 1    
    37   18   19 1    
    38   18   37 1    
    39   18   88 1    
    40   19   20 am   BACKBONE|DICT|INTERRES
    41   19   89 1    
    42   20   21 2    
    43   20   22 1    
    44   22   23 1    
    45   22   24 1    
    46   22   90 1    
    47   23   91 1    
    48   23   92 1    
    49   23   93 1    
    50   24   25 am   BACKBONE|DICT|INTERRES
    51   24   94 1    
    52   25   26 2    
    53   25   27 1    
    54   27   28 1    
    55   27   29 1    
    56   27   95 1    
    57   28   96 1    
    58   28   97 1    
    59   28   98 1    
    60   29   30 am   BACKBONE|DICT|INTERRES
    61   29   99 1    
    62   30   31 2    
    63   30   32 1    
    64   32   33 1    
    65   32   34 1    
    66   32  100 1    
    67   33  101 1    
    68   33  102 1    
    69   33  103 1    
    70   34   35 am   BACKBONE|DICT|INTERRES
    71   34  104 1    
    72   35   36 2    
    73   37   38 2    
    74   37   39 am   BACKBONE|DICT|INTERRES
    75   39   40 1    
    76   39  105 1    
    77   40   41 1    
    78   40   42 1    
    79   40  106 1    
    80   41  107 1    
    81   41  108 1    
    82   41  109 1    
    83   42   43 2    
    84   42   44 am   BACKBONE|DICT|INTERRES
    85   44   45 1    
    86   44  110 1    
    87   45   46 1    
    88   45   47 1    
    89   45  111 1    
    90   46  112 1    
    91   46  113 1    
    92   46  114 1    
    93   47   48 2    
    94   47   49 am   BACKBONE|DICT|INTERRES
    95   49   50 1    
    96   49  115 1    
    97   50   51 1    
    98   50   52 1    
    99   50  116 1    
   100   51  117 1    
   101   51  118 1    
   102   51  119 1    
   103   52   53 2    
   104   52   54 am   BACKBONE|DICT|INTERRES
   105   54   55 1    
   106   54  120 1    
   107   55   56 1    
   108   55   57 1    
   109   55  121 1    
   110   56  122 1    
   111   56  123 1    
   112   56  124 1    
   113   57   58 2    
   114   57   59 am   BACKBONE|DICT|INTERRES
   115   59   60 1    
   116   59  125 1    
   117   60   61 1    
   118   60   62 1    
   119   60  126 1    
   120   61  127 1    
   121   61  128 1    
   122   61  129 1    
   123   62   63 2    
   124   62   64 am   BACKBONE|DICT|INTERRES
   125   64   65 1    
   126   64  130 1    
   127   65   66 1    
   128   65   69 1    
   129   65  131 1    
   130   66   67 am   BACKBONE|DICT|INTERRES
   131   66   68 2    
   132   67  132 1    
   133   67  133 1    
   134   69   70 1    
   135   69  134 1    
   136   69  135 1    
   137   70   71 1    
   138   71  136 1    
   139   71  137 1    
@<TRIPOS>SUBSTRUCTURE
     1 UNK         1 GROUP             0       ****    0 ROOT    
