@<TRIPOS>MOLECULE
3R136
137   139    1
SMALL
USER_CHARGES


@<TRIPOS>ATOM
      1 CA         26.4663   20.6416    3.5371 C.3       0 UNK        -0.1979 
      2 C          27.4630   20.4598    2.4018 C.2       0 UNK         0.4864 
      3 O          28.3553   19.6160    2.4982 O.2       0 UNK        -0.5359 
      4 N          27.3198   21.2471    1.3324 N.am      1 UNK        -0.4318 
      5 CA         28.1792   21.2516    0.1503 C.3       1 UNK         0.0824 
      6 C6         29.5645   21.9149    0.3976 C.3       12 UNK        -0.0944 
      7 S7         29.4781   23.6005    1.1044 S.3       12 UNK        -0.2672 
      8 C8         30.1296   23.2768    2.7705 C.3       12 UNK         0.0333 
      9 C9         29.9110   24.4624    3.6934 C.ar      12 UNK        -0.0807 
     10 C10        30.9406   25.3754    3.9357 C.ar      12 UNK        -0.0894 
     11 C11        30.7518   26.4393    4.8248 C.ar      12 UNK        -0.0804 
     12 C12        29.5067   26.6067    5.4416 C.ar      12 UNK        -0.0824 
     13 C13        28.4635   25.7085    5.1905 C.ar      12 UNK        -0.0762 
     14 C14        28.6781   24.6305    4.3270 C.ar      12 UNK        -0.0782 
     15 C15        27.1038   25.8929    5.8508 C.3       12 UNK         0.0230 
     16 S16        25.7734   26.1220    4.6250 S.3       12 UNK        -0.2608 
     17 C17        26.1775   27.7636    3.9349 C.3       12 UNK        -0.0989 
     18 CA         27.0428   27.7030    2.6421 C.3       5 UNK         0.0716 
     19 N          26.5179   26.8196    1.5952 N.am      5 UNK        -0.4135 
     20 C          25.3323   26.9092    0.9785 C.2       4 UNK         0.5031 
     21 O          24.4877   27.7716    1.2270 O.2       4 UNK        -0.5229 
     22 CA         25.0784   25.8676   -0.1325 C.3       4 UNK         0.0329 
     23 CB         23.8899   26.2440   -1.0420 C.3       4 UNK        -0.2001 
     24 N          26.2688   25.5783   -0.9479 N.am      4 UNK        -0.4303 
     25 C          27.0188   26.4712   -1.6179 C.2       3 UNK         0.5044 
     26 O          26.8206   27.6837   -1.5759 O.2       3 UNK        -0.5152 
     27 CA         28.2131   25.9572   -2.4445 C.3       3 UNK         0.0319 
     28 CB         29.5385   26.3516   -1.7695 C.3       3 UNK        -0.2001 
     29 N          28.1945   24.5104   -2.6670 N.am      3 UNK        -0.4354 
     30 C          27.3475   23.8733   -3.4897 C.2       2 UNK         0.4964 
     31 O          26.5551   24.4510   -4.2343 O.2       2 UNK        -0.5047 
     32 CA         27.3617   22.3320   -3.4622 C.3       2 UNK         0.0288 
     33 CB         28.1373   21.7810   -4.6703 C.3       2 UNK        -0.2113 
     34 N          27.9121   21.7484   -2.2315 N.am      2 UNK        -0.4145 
     35 C          27.4120   21.9237   -0.9994 C.2       1 UNK         0.5006 
     36 O          26.4183   22.6165   -0.7540 O.2       1 UNK        -0.5103 
     37 C          27.4277   29.1149    2.1406 C.2       5 UNK         0.5055 
     38 O          27.7383   29.9685    2.9717 O.2       5 UNK        -0.5220 
     39 N          27.4875   29.3548    0.8180 N.am      6 UNK        -0.4450 
     40 CA         27.9662   30.6237    0.2420 C.3       6 UNK         0.0367 
     41 CB         27.6537   30.6718   -1.2615 C.3       6 UNK        -0.1929 
     42 C          29.4670   30.8842    0.4838 C.2       6 UNK         0.5070 
     43 O          29.9113   32.0253    0.3635 O.2       6 UNK        -0.5237 
     44 N          30.2126   29.8297    0.8410 N.am      7 UNK        -0.4739 
     45 CA         31.6163   29.8722    1.2509 C.3       7 UNK         0.0276 
     46 CB         32.2057   28.4568    1.1134 C.3       7 UNK        -0.1927 
     47 C          31.8386   30.4157    2.6774 C.2       7 UNK         0.5013 
     48 O          32.9969   30.5421    3.0777 O.2       7 UNK        -0.5193 
     49 N          30.7633   30.6890    3.4362 N.am      8 UNK        -0.4253 
     50 CA         30.8040   31.2236    4.8027 C.3       8 UNK         0.0242 
     51 CB         29.3728   31.3519    5.3469 C.3       8 UNK        -0.2000 
     52 C          31.5506   32.5659    4.9163 C.2       8 UNK         0.4948 
     53 O          31.5847   33.3400    3.9576 O.2       8 UNK        -0.5275 
     54 N          32.1427   32.7917    6.0989 N.am      9 UNK        -0.4246 
     55 CA         33.0862   33.8698    6.4379 C.3       9 UNK         0.0261 
     56 CB         32.4745   35.2712    6.2207 C.3       9 UNK        -0.1959 
     57 C          34.4707   33.7091    5.7711 C.2       9 UNK         0.5033 
     58 O          35.2571   34.6581    5.7668 O.2       9 UNK        -0.5390 
     59 N          34.7623   32.5054    5.2637 N.am      10 UNK        -0.4215 
     60 CA         36.0523   32.0843    4.7271 C.3       10 UNK         0.0240 
     61 CB         36.1704   32.4455    3.2337 C.3       10 UNK        -0.1982 
     62 C          36.2082   30.5825    4.9868 C.2       10 UNK         0.4970 
     63 O          37.0600   30.1925    5.7852 O.2       10 UNK        -0.4916 
     64 N          35.3426   29.7816    4.3499 N.am      11 UNK        -0.4279 
     65 CA         35.1968   28.3277    4.5230 C.3       11 UNK         0.1003 
     66 C          36.4614   27.4774    4.1860 C.2       11 UNK         0.5709 
     67 N          37.3687   27.9676    3.3494 N.am      11 UNK        -0.7358 
     68 O          36.6177   26.3546    4.6598 O.2       11 UNK        -0.4999 
     69 C69        34.5249   27.9830    5.8862 C.3       12 UNK        -0.0954 
     70 S70        33.3650   26.5801    5.7718 S.3       12 UNK        -0.2268 
     71 C71        31.8875   27.4138    5.1066 C.3       12 UNK         0.0203 
     72 H72        26.9899   20.9006    4.4570 H         1 UNK         0.0888 
     73 H73        25.7460   21.4316    3.3241 H         1 UNK         0.0888 
     74 H74        25.9160   19.7163    3.7059 H         1 UNK         0.0888 
     75 H75        26.5504   21.9025    1.2649 H         1 UNK         0.3017 
     76 H76        28.3390   20.2128   -0.1470 H         1 UNK         0.0873 
     77 H77        30.1442   21.9628   -0.5257 H         1 UNK         0.0745 
     78 H78        30.1518   21.2770    1.0598 H         1 UNK         0.0745 
     79 H79        31.1914   23.0352    2.7011 H         1 UNK         0.0705 
     80 H80        29.6412   22.3972    3.1921 H         1 UNK         0.0705 
     81 H81        31.8982   25.2473    3.4495 H         1 UNK         0.1334 
     82 H82        29.3489   27.4364    6.1173 H         1 UNK         0.1417 
     83 H83        27.8770   23.9289    4.1367 H         1 UNK         0.1562 
     84 H84        27.1100   26.7377    6.5414 H         1 UNK         0.0748 
     85 H85        26.8806   25.0092    6.4501 H         1 UNK         0.0748 
     86 H86        26.6819   28.3463    4.7082 H         1 UNK         0.0940 
     87 H87        25.2399   28.2862    3.7391 H         1 UNK         0.0940 
     88 H88        27.9968   27.2548    2.9197 H         1 UNK         0.0703 
     89 H89        27.1337   26.0700    1.3143 H         1 UNK         0.3081 
     90 H90        24.8235   24.9369    0.3768 H         1 UNK         0.0719 
     91 H91        24.0588   27.1919   -1.5542 H         1 UNK         0.0809 
     92 H92        23.7142   25.4803   -1.7997 H         1 UNK         0.0809 
     93 H93        22.9699   26.3444   -0.4648 H         1 UNK         0.0809 
     94 H94        26.5078   24.5938   -1.0202 H         1 UNK         0.2990 
     95 H95        28.1680   26.4519   -3.4171 H         1 UNK         0.0690 
     96 H96        30.3964   26.0377   -2.3642 H         1 UNK         0.0788 
     97 H97        29.6373   25.9100   -0.7779 H         1 UNK         0.0788 
     98 H98        29.6097   27.4339   -1.6506 H         1 UNK         0.0788 
     99 H99        28.8197   23.9573   -2.0993 H         1 UNK         0.2993 
    100 H100       26.3227   22.0047   -3.5429 H         1 UNK         0.0949 
    101 H101       28.0721   20.6940   -4.7228 H         1 UNK         0.0767 
    102 H102       27.7337   22.1721   -5.6055 H         1 UNK         0.0767 
    103 H103       29.1926   22.0545   -4.6315 H         1 UNK         0.0767 
    104 H104       28.7315   21.1681   -2.3433 H         1 UNK         0.3013 
    105 H105       27.1992   28.6395    0.1565 H         1 UNK         0.3121 
    106 H106       27.4166   31.4345    0.7252 H         1 UNK         0.0774 
    107 H107       27.9092   31.6456   -1.6812 H         1 UNK         0.0815 
    108 H108       28.2208   29.9227   -1.8152 H         1 UNK         0.0815 
    109 H109       26.5940   30.5042   -1.4547 H         1 UNK         0.0815 
    110 H110       29.7544   28.9328    0.8983 H         1 UNK         0.2987 
    111 H111       32.1551   30.5369    0.5721 H         1 UNK         0.0949 
    112 H112       31.6942   27.7399    1.7568 H         1 UNK         0.0806 
    113 H113       32.1329   28.0957    0.0873 H         1 UNK         0.0806 
    114 H114       33.2627   28.4416    1.3829 H         1 UNK         0.0806 
    115 H115       29.8422   30.5567    3.0365 H         1 UNK         0.3010 
    116 H116       31.3385   30.4935    5.4121 H         1 UNK         0.0829 
    117 H117       28.8776   30.3816    5.3897 H         1 UNK         0.0813 
    118 H118       29.3661   31.7595    6.3586 H         1 UNK         0.0813 
    119 H119       28.7654   32.0112    4.7252 H         1 UNK         0.0813 
    120 H120       32.0041   32.1084    6.8318 H         1 UNK         0.3038 
    121 H121       33.2695   33.7672    7.5086 H         1 UNK         0.0769 
    122 H122       33.1059   36.0434    6.6616 H         1 UNK         0.0811 
    123 H123       31.4920   35.3535    6.6853 H         1 UNK         0.0811 
    124 H124       32.3687   35.5113    5.1626 H         1 UNK         0.0811 
    125 H125       34.0552   31.7859    5.3140 H         1 UNK         0.3204 
    126 H126       36.8510   32.5938    5.2709 H         1 UNK         0.0748 
    127 H127       37.1026   32.0677    2.8118 H         1 UNK         0.0771 
    128 H128       35.3498   32.0342    2.6449 H         1 UNK         0.0771 
    129 H129       36.1664   33.5264    3.0920 H         1 UNK         0.0771 
    130 H130       34.6500   30.1976    3.7290 H         1 UNK         0.2980 
    131 H131       34.4948   28.0567    3.7346 H         1 UNK         0.0545 
    132 H132       37.2511   28.8835    2.9473 H         1 UNK         0.3459 
    133 H133       38.1822   27.4166    3.1255 H         1 UNK         0.3459 
    134 H134       35.2747   27.7679    6.6494 H         1 UNK         0.0616 
    135 H135       33.9608   28.8363    6.2664 H         1 UNK         0.0616 
    136 H136       31.5703   28.1786    5.8160 H         1 UNK         0.0634 
    137 H137       32.1474   27.9279    4.1828 H         1 UNK         0.0634 
@<TRIPOS>BOND
     1    1    2 1    
     2    1   72 1    
     3    1   73 1    
     4    1   74 1    
     5    2    3 2    
     6    2    4 am   BACKBONE|DICT|INTERRES
     7    4    5 1    
     8    4   75 1    
     9    5    6 1    
    10    5   35 1    
    11    5   76 1    
    12    6    7 1    
    13    6   77 1    
    14    6   78 1    
    15    7    8 1    
    16    8    9 1    
    17    8   79 1    
    18    8   80 1    
    19    9   10 ar   
    20    9   14 ar   
    21   10   11 ar   
    22   10   81 1    
    23   11   12 ar   
    24   11   71 1    
    25   12   13 ar   
    26   12   82 1    
    27   13   14 ar   
    28   13   15 1    
    29   14   83 1    
    30   15   16 1    
    31   15   84 1    
    32   15   85 1    
    33   16   17 1    
    34   17   18 1    
    35   17   86 1    
    36   17   87 1    
    37   18   19 1    
    38   18   37 1    
    39   18   88 1    
    40   19   20 am   BACKBONE|DICT|INTERRES
    41   19   89 1    
    42   20   21 2    
    43   20   22 1    
    44   22   23 1    
    45   22   24 1    
    46   22   90 1    
    47   23   91 1    
    48   23   92 1    
    49   23   93 1    
    50   24   25 am   BACKBONE|DICT|INTERRES
    51   24   94 1    
    52   25   26 2    
    53   25   27 1    
    54   27   28 1    
    55   27   29 1    
    56   27   95 1    
    57   28   96 1    
    58   28   97 1    
    59   28   98 1    
    60   29   30 am   BACKBONE|DICT|INTERRES
    61   29   99 1    
    62   30   31 2    
    63   30   32 1    
    64   32   33 1    
    65   32   34 1    
    66   32  100 1    
    67   33  101 1    
    68   33  102 1    
    69   33  103 1    
    70   34   35 am   BACKBONE|DICT|INTERRES
    71   34  104 1    
    72   35   36 2    
    73   37   38 2    
    74   37   39 am   BACKBONE|DICT|INTERRES
    75   39   40 1    
    76   39  105 1    
    77   40   41 1    
    78   40   42 1    
    79   40  106 1    
    80   41  107 1    
    81   41  108 1    
    82   41  109 1    
    83   42   43 2    
    84   42   44 am   BACKBONE|DICT|INTERRES
    85   44   45 1    
    86   44  110 1    
    87   45   46 1    
    88   45   47 1    
    89   45  111 1    
    90   46  112 1    
    91   46  113 1    
    92   46  114 1    
    93   47   48 2    
    94   47   49 am   BACKBONE|DICT|INTERRES
    95   49   50 1    
    96   49  115 1    
    97   50   51 1    
    98   50   52 1    
    99   50  116 1    
   100   51  117 1    
   101   51  118 1    
   102   51  119 1    
   103   52   53 2    
   104   52   54 am   BACKBONE|DICT|INTERRES
   105   54   55 1    
   106   54  120 1    
   107   55   56 1    
   108   55   57 1    
   109   55  121 1    
   110   56  122 1    
   111   56  123 1    
   112   56  124 1    
   113   57   58 2    
   114   57   59 am   BACKBONE|DICT|INTERRES
   115   59   60 1    
   116   59  125 1    
   117   60   61 1    
   118   60   62 1    
   119   60  126 1    
   120   61  127 1    
   121   61  128 1    
   122   61  129 1    
   123   62   63 2    
   124   62   64 am   BACKBONE|DICT|INTERRES
   125   64   65 1    
   126   64  130 1    
   127   65   66 1    
   128   65   69 1    
   129   65  131 1    
   130   66   67 am   BACKBONE|DICT|INTERRES
   131   66   68 2    
   132   67  132 1    
   133   67  133 1    
   134   69   70 1    
   135   69  134 1    
   136   69  135 1    
   137   70   71 1    
   138   71  136 1    
   139   71  137 1    
@<TRIPOS>SUBSTRUCTURE
     1 UNK         1 GROUP             0       ****    0 ROOT    
