@<TRIPOS>MOLECULE
3R136
137   139    1
SMALL
USER_CHARGES


@<TRIPOS>ATOM
      1 CA         29.2628   29.9749   -4.2641 C.3       0 UNK        -0.1979 
      2 C          29.1453   29.3735   -2.8715 C.2       0 UNK         0.4864 
      3 O          29.0072   30.1136   -1.8989 O.2       0 UNK        -0.5359 
      4 N          29.1970   28.0418   -2.7740 N.am      1 UNK        -0.4318 
      5 CA         29.0763   27.2605   -1.5446 C.3       1 UNK         0.0824 
      6 C6         30.3844   27.2765   -0.7048 C.3       12 UNK        -0.0944 
      7 S7         30.0936   26.9121    1.0585 S.3       12 UNK        -0.2672 
      8 C8         31.1343   25.4456    1.3050 C.3       12 UNK         0.0333 
      9 C9         30.9621   24.9261    2.7206 C.ar      12 UNK        -0.0807 
     10 C10        31.6935   25.4941    3.7659 C.ar      12 UNK        -0.0894 
     11 C11        31.5242   25.0430    5.0777 C.ar      12 UNK        -0.0804 
     12 C12        30.5922   24.0344    5.3435 C.ar      12 UNK        -0.0824 
     13 C13        29.8447   23.4661    4.3049 C.ar      12 UNK        -0.0762 
     14 C14        30.0542   23.8991    2.9917 C.ar      12 UNK        -0.0782 
     15 C15        28.8038   22.3915    4.6048 C.3       12 UNK         0.0230 
     16 S16        27.1197   22.8529    4.0612 S.3       12 UNK        -0.2608 
     17 C17        26.8975   24.4845    4.8468 C.3       12 UNK        -0.0989 
     18 CA         26.9975   25.6171    3.7925 C.3       5 UNK         0.0716 
     19 N          25.7689   25.7377    3.0034 N.am      5 UNK        -0.4135 
     20 C          25.7357   26.1661    1.7386 C.2       4 UNK         0.5031 
     21 O          26.7381   26.4732    1.0867 O.2       4 UNK        -0.5229 
     22 CA         24.3614   26.2497    1.0642 C.3       4 UNK         0.0329 
     23 CB         23.7973   27.6782    1.1264 C.3       4 UNK        -0.2001 
     24 N          24.5804   25.8629   -0.3213 N.am      4 UNK        -0.4303 
     25 C          23.8137   25.0567   -1.0623 C.2       3 UNK         0.5044 
     26 O          22.6687   24.7183   -0.7614 O.2       3 UNK        -0.5152 
     27 CA         24.4745   24.4898   -2.3357 C.3       3 UNK         0.0319 
     28 CB         24.2318   25.4193   -3.5352 C.3       3 UNK        -0.2001 
     29 N          25.9187   24.2878   -2.1593 N.am      3 UNK        -0.4354 
     30 C          26.4694   23.4133   -1.3043 C.2       2 UNK         0.4964 
     31 O          25.8293   22.5362   -0.7242 O.2       2 UNK        -0.5047 
     32 CA         27.9633   23.5803   -0.9759 C.3       2 UNK         0.0288 
     33 CB         28.8513   22.7115   -1.8881 C.3       2 UNK        -0.2113 
     34 N          28.4128   24.9813   -0.9281 N.am      2 UNK        -0.4145 
     35 C          28.6130   25.8424   -1.9338 C.2       1 UNK         0.5006 
     36 O          28.4127   25.5652   -3.1207 O.2       1 UNK        -0.5103 
     37 C          27.3567   26.9593    4.4507 C.2       5 UNK         0.5055 
     38 O          26.4701   27.7760    4.7135 O.2       5 UNK        -0.5220 
     39 N          28.6569   27.1238    4.7375 N.am      6 UNK        -0.4450 
     40 CA         29.2843   28.2818    5.3844 C.3       6 UNK         0.0367 
     41 CB         28.8346   28.4053    6.8552 C.3       6 UNK        -0.1929 
     42 C          29.1065   29.5847    4.5799 C.2       6 UNK         0.5070 
     43 O          28.7595   30.6231    5.1449 O.2       6 UNK        -0.5237 
     44 N          29.3596   29.4971    3.2706 N.am      7 UNK        -0.4739 
     45 CA         29.3367   30.6057    2.3194 C.3       7 UNK         0.0276 
     46 CB         28.2137   30.3438    1.3023 C.3       7 UNK        -0.1927 
     47 C          30.7084   30.7198    1.6339 C.2       7 UNK         0.5013 
     48 O          31.5722   29.8601    1.8358 O.2       7 UNK        -0.5193 
     49 N          30.8984   31.7944    0.8539 N.am      8 UNK        -0.4253 
     50 CA         32.1392   32.1630    0.1583 C.3       8 UNK         0.0242 
     51 CB         32.4462   31.1694   -0.9871 C.3       8 UNK        -0.2000 
     52 C          33.2964   32.3525    1.1584 C.2       8 UNK         0.4948 
     53 O          33.2924   33.3420    1.8922 O.2       8 UNK        -0.5275 
     54 N          34.2374   31.3983    1.1995 N.am      9 UNK        -0.4246 
     55 CA         35.3204   31.3319    2.1865 C.3       9 UNK         0.0261 
     56 CB         36.3726   30.3156    1.7134 C.3       9 UNK        -0.1959 
     57 C          34.8359   30.9781    3.6065 C.2       9 UNK         0.5033 
     58 O          35.5470   31.2712    4.5695 O.2       9 UNK        -0.5390 
     59 N          33.6569   30.3433    3.7120 N.am      10 UNK        -0.4215 
     60 CA         32.9230   29.9997    4.9357 C.3       10 UNK         0.0240 
     61 CB         32.2944   31.2693    5.5455 C.3       10 UNK        -0.1982 
     62 C          33.7206   29.1764    5.9662 C.2       10 UNK         0.4970 
     63 O          33.4758   29.3054    7.1667 O.2       10 UNK        -0.4916 
     64 N          34.6527   28.3452    5.4787 N.am      11 UNK        -0.4279 
     65 CA         35.6050   27.5514    6.2762 C.3       11 UNK         0.1003 
     66 C          36.6140   28.4069    7.1067 C.2       11 UNK         0.5709 
     67 N          36.8204   29.6819    6.7927 N.am      11 UNK        -0.7358 
     68 O          37.2519   27.9027    8.0284 O.2       11 UNK        -0.4999 
     69 C69        34.9161   26.4260    7.1076 C.3       12 UNK        -0.0954 
     70 S70        34.0996   25.1876    6.0463 S.3       12 UNK        -0.2268 
     71 C71        32.3488   25.6587    6.1977 C.3       12 UNK         0.0203 
     72 H72        29.3866   29.2094   -5.0299 H         1 UNK         0.0888 
     73 H73        28.3684   30.5506   -4.5004 H         1 UNK         0.0888 
     74 H74        30.1217   30.6439   -4.3110 H         1 UNK         0.0888 
     75 H75        29.2396   27.4657   -3.6067 H         1 UNK         0.3017 
     76 H76        28.2672   27.7023   -0.9586 H         1 UNK         0.0873 
     77 H77        31.1342   26.6030   -1.1241 H         1 UNK         0.0745 
     78 H78        30.8342   28.2701   -0.7327 H         1 UNK         0.0745 
     79 H79        32.1785   25.7056    1.1237 H         1 UNK         0.0705 
     80 H80        30.8727   24.6743    0.5790 H         1 UNK         0.0705 
     81 H81        32.4008   26.2859    3.5575 H         1 UNK         0.1334 
     82 H82        30.4480   23.6935    6.3599 H         1 UNK         0.1417 
     83 H83        29.4801   23.4598    2.1874 H         1 UNK         0.1562 
     84 H84        28.7751   22.1676    5.6724 H         1 UNK         0.0748 
     85 H85        29.0945   21.4660    4.1060 H         1 UNK         0.0748 
     86 H86        27.6441   24.5952    5.6358 H         1 UNK         0.0940 
     87 H87        25.9323   24.5082    5.3558 H         1 UNK         0.0940 
     88 H88        27.8152   25.3838    3.1091 H         1 UNK         0.0703 
     89 H89        24.9039   25.5447    3.4859 H         1 UNK         0.3081 
     90 H90        23.6741   25.5523    1.5483 H         1 UNK         0.0719 
     91 H91        24.4767   28.3998    0.6702 H         1 UNK         0.0809 
     92 H92        22.8394   27.7475    0.6107 H         1 UNK         0.0809 
     93 H93        23.6357   27.9890    2.1593 H         1 UNK         0.0809 
     94 H94        25.5244   26.0475   -0.6354 H         1 UNK         0.2990 
     95 H95        24.0175   23.5211   -2.5486 H         1 UNK         0.0690 
     96 H96        24.6432   24.9980   -4.4526 H         1 UNK         0.0788 
     97 H97        24.6826   26.4012   -3.3849 H         1 UNK         0.0788 
     98 H98        23.1641   25.5717   -3.6996 H         1 UNK         0.0788 
     99 H99        26.5440   24.9228   -2.6437 H         1 UNK         0.2993 
    100 H100       28.0888   23.2084    0.0424 H         1 UNK         0.0949 
    101 H101       28.7448   22.9767   -2.9402 H         1 UNK         0.0767 
    102 H102       29.9042   22.8051   -1.6219 H         1 UNK         0.0767 
    103 H103       28.5854   21.6578   -1.7948 H         1 UNK         0.0767 
    104 H104       28.5130   25.3654    0.0057 H         1 UNK         0.3013 
    105 H105       29.2948   26.3876    4.4625 H         1 UNK         0.3121 
    106 H106       30.3536   28.0745    5.3945 H         1 UNK         0.0774 
    107 H107       29.3925   29.1901    7.3675 H         1 UNK         0.0815 
    108 H108       27.7760   28.6538    6.9366 H         1 UNK         0.0815 
    109 H109       29.0059   27.4779    7.4016 H         1 UNK         0.0815 
    110 H110       29.6969   28.6225    2.8875 H         1 UNK         0.2987 
    111 H111       29.1426   31.5497    2.8330 H         1 UNK         0.0949 
    112 H112       28.1290   31.1575    0.5814 H         1 UNK         0.0806 
    113 H113       28.3896   29.4276    0.7388 H         1 UNK         0.0806 
    114 H114       27.2470   30.2469    1.7967 H         1 UNK         0.0806 
    115 H115       30.1404   32.4561    0.7627 H         1 UNK         0.3010 
    116 H116       31.9651   33.1402   -0.2951 H         1 UNK         0.0829 
    117 H117       31.6380   31.1631   -1.7184 H         1 UNK         0.0813 
    118 H118       33.3551   31.4512   -1.5205 H         1 UNK         0.0813 
    119 H119       32.5700   30.1452   -0.6347 H         1 UNK         0.0813 
    120 H120       34.1439   30.6140    0.5700 H         1 UNK         0.3038 
    121 H121       35.7928   32.3151    2.2399 H         1 UNK         0.0769 
    122 H122       37.2062   30.2616    2.4154 H         1 UNK         0.0811 
    123 H123       36.7865   30.5950    0.7443 H         1 UNK         0.0811 
    124 H124       35.9557   29.3116    1.6247 H         1 UNK         0.0811 
    125 H125       33.1446   30.1441    2.8540 H         1 UNK         0.3204 
    126 H126       32.1115   29.3519    4.6086 H         1 UNK         0.0748 
    127 H127       31.6292   31.0232    6.3743 H         1 UNK         0.0771 
    128 H128       33.0559   31.9512    5.9254 H         1 UNK         0.0771 
    129 H129       31.6991   31.8079    4.8078 H         1 UNK         0.0771 
    130 H130       34.7893   28.3147    4.4797 H         1 UNK         0.2980 
    131 H131       36.2400   27.0549    5.5418 H         1 UNK         0.0545 
    132 H132       37.4840   30.2165    7.3298 H         1 UNK         0.3459 
    133 H133       36.3152   30.1262    6.0327 H         1 UNK         0.3459 
    134 H134       34.2039   26.8379    7.8236 H         1 UNK         0.0616 
    135 H135       35.6532   25.8818    7.6999 H         1 UNK         0.0616 
    136 H136       32.2494   26.7421    6.1572 H         1 UNK         0.0634 
    137 H137       31.9782   25.3498    7.1762 H         1 UNK         0.0634 
@<TRIPOS>BOND
     1    1    2 1    
     2    1   72 1    
     3    1   73 1    
     4    1   74 1    
     5    2    3 2    
     6    2    4 am   BACKBONE|DICT|INTERRES
     7    4    5 1    
     8    4   75 1    
     9    5    6 1    
    10    5   35 1    
    11    5   76 1    
    12    6    7 1    
    13    6   77 1    
    14    6   78 1    
    15    7    8 1    
    16    8    9 1    
    17    8   79 1    
    18    8   80 1    
    19    9   10 ar   
    20    9   14 ar   
    21   10   11 ar   
    22   10   81 1    
    23   11   12 ar   
    24   11   71 1    
    25   12   13 ar   
    26   12   82 1    
    27   13   14 ar   
    28   13   15 1    
    29   14   83 1    
    30   15   16 1    
    31   15   84 1    
    32   15   85 1    
    33   16   17 1    
    34   17   18 1    
    35   17   86 1    
    36   17   87 1    
    37   18   19 1    
    38   18   37 1    
    39   18   88 1    
    40   19   20 am   BACKBONE|DICT|INTERRES
    41   19   89 1    
    42   20   21 2    
    43   20   22 1    
    44   22   23 1    
    45   22   24 1    
    46   22   90 1    
    47   23   91 1    
    48   23   92 1    
    49   23   93 1    
    50   24   25 am   BACKBONE|DICT|INTERRES
    51   24   94 1    
    52   25   26 2    
    53   25   27 1    
    54   27   28 1    
    55   27   29 1    
    56   27   95 1    
    57   28   96 1    
    58   28   97 1    
    59   28   98 1    
    60   29   30 am   BACKBONE|DICT|INTERRES
    61   29   99 1    
    62   30   31 2    
    63   30   32 1    
    64   32   33 1    
    65   32   34 1    
    66   32  100 1    
    67   33  101 1    
    68   33  102 1    
    69   33  103 1    
    70   34   35 am   BACKBONE|DICT|INTERRES
    71   34  104 1    
    72   35   36 2    
    73   37   38 2    
    74   37   39 am   BACKBONE|DICT|INTERRES
    75   39   40 1    
    76   39  105 1    
    77   40   41 1    
    78   40   42 1    
    79   40  106 1    
    80   41  107 1    
    81   41  108 1    
    82   41  109 1    
    83   42   43 2    
    84   42   44 am   BACKBONE|DICT|INTERRES
    85   44   45 1    
    86   44  110 1    
    87   45   46 1    
    88   45   47 1    
    89   45  111 1    
    90   46  112 1    
    91   46  113 1    
    92   46  114 1    
    93   47   48 2    
    94   47   49 am   BACKBONE|DICT|INTERRES
    95   49   50 1    
    96   49  115 1    
    97   50   51 1    
    98   50   52 1    
    99   50  116 1    
   100   51  117 1    
   101   51  118 1    
   102   51  119 1    
   103   52   53 2    
   104   52   54 am   BACKBONE|DICT|INTERRES
   105   54   55 1    
   106   54  120 1    
   107   55   56 1    
   108   55   57 1    
   109   55  121 1    
   110   56  122 1    
   111   56  123 1    
   112   56  124 1    
   113   57   58 2    
   114   57   59 am   BACKBONE|DICT|INTERRES
   115   59   60 1    
   116   59  125 1    
   117   60   61 1    
   118   60   62 1    
   119   60  126 1    
   120   61  127 1    
   121   61  128 1    
   122   61  129 1    
   123   62   63 2    
   124   62   64 am   BACKBONE|DICT|INTERRES
   125   64   65 1    
   126   64  130 1    
   127   65   66 1    
   128   65   69 1    
   129   65  131 1    
   130   66   67 am   BACKBONE|DICT|INTERRES
   131   66   68 2    
   132   67  132 1    
   133   67  133 1    
   134   69   70 1    
   135   69  134 1    
   136   69  135 1    
   137   70   71 1    
   138   71  136 1    
   139   71  137 1    
@<TRIPOS>SUBSTRUCTURE
     1 UNK         1 GROUP             0       ****    0 ROOT    
