@<TRIPOS>MOLECULE
3R136
137   139    1
SMALL
USER_CHARGES


@<TRIPOS>ATOM
      1 CA         26.4800   22.6712   -2.1723 C.3       0 UNK        -0.1979 
      2 C          27.5451   23.4712   -2.9075 C.2       0 UNK         0.4864 
      3 O          27.3517   23.8237   -4.0717 O.2       0 UNK        -0.5359 
      4 N          28.6682   23.7580   -2.2358 N.am      1 UNK        -0.4318 
      5 CA         29.7819   24.5684   -2.7466 C.3       1 UNK         0.0824 
      6 C6         31.0645   24.3983   -1.8911 C.3       12 UNK        -0.0944 
      7 S7         30.7916   24.5263   -0.0866 S.3       12 UNK        -0.2672 
      8 C8         31.9289   23.2347    0.5093 C.3       12 UNK         0.0333 
      9 C9         31.9758   23.2014    2.0284 C.ar      12 UNK        -0.0807 
     10 C10        32.7738   24.1161    2.7210 C.ar      12 UNK        -0.0894 
     11 C11        32.7952   24.1291    4.1172 C.ar      12 UNK        -0.0804 
     12 C12        32.0311   23.1948    4.8232 C.ar      12 UNK        -0.0824 
     13 C13        31.2432   22.2589    4.1429 C.ar      12 UNK        -0.0762 
     14 C14        31.2224   22.2648    2.7437 C.ar      12 UNK        -0.0782 
     15 C15        30.3903   21.2631    4.9211 C.3       12 UNK         0.0230 
     16 S16        28.6129   21.6797    4.8699 S.3       12 UNK        -0.2608 
     17 C17        28.6163   23.3822    5.5268 C.3       12 UNK        -0.0989 
     18 CA         28.6165   24.4165    4.3684 C.3       5 UNK         0.0716 
     19 N          27.3553   24.4590    3.6225 N.am      5 UNK        -0.4135 
     20 C          26.1891   24.9761    4.0305 C.2       4 UNK         0.5031 
     21 O          25.9793   25.4334    5.1557 O.2       4 UNK        -0.5229 
     22 CA         25.0762   25.0202    2.9665 C.3       4 UNK         0.0329 
     23 CB         23.7019   24.6860    3.5739 C.3       4 UNK        -0.2001 
     24 N          24.9918   26.3126    2.2748 N.am      4 UNK        -0.4303 
     25 C          25.9814   26.9270    1.6107 C.2       3 UNK         0.5044 
     26 O          27.1424   26.5085    1.5506 O.2       3 UNK        -0.5152 
     27 CA         25.6004   28.2237    0.8696 C.3       3 UNK         0.0319 
     28 CB         25.5841   29.4362    1.8136 C.3       3 UNK        -0.2001 
     29 N          26.5462   28.4838   -0.2145 N.am      3 UNK        -0.4354 
     30 C          26.5959   27.7744   -1.3486 C.2       2 UNK         0.4964 
     31 O          25.7095   26.9984   -1.7108 O.2       2 UNK        -0.5047 
     32 CA         27.8771   27.8779   -2.1834 C.3       2 UNK         0.0288 
     33 CB         28.8487   28.9922   -1.7341 C.3       2 UNK        -0.2113 
     34 N          28.5083   26.5655   -2.0945 N.am      2 UNK        -0.4145 
     35 C          29.4078   26.0552   -2.9421 C.2       1 UNK         0.5006 
     36 O          29.9167   26.6917   -3.8668 O.2       1 UNK        -0.5103 
     37 C          29.1090   25.8208    4.7751 C.2       5 UNK         0.5055 
     38 O          29.5511   26.0249    5.9073 O.2       5 UNK        -0.5220 
     39 N          29.0255   26.7607    3.8270 N.am      6 UNK        -0.4450 
     40 CA         29.4958   28.1311    3.9619 C.3       6 UNK         0.0367 
     41 CB         28.3868   29.0034    4.5771 C.3       6 UNK        -0.1929 
     42 C          29.9852   28.6042    2.5886 C.2       6 UNK         0.5070 
     43 O          29.3543   29.4596    1.9629 O.2       6 UNK        -0.5237 
     44 N          31.0988   28.0092    2.1334 N.am      7 UNK        -0.4739 
     45 CA         31.8020   28.3209    0.8833 C.3       7 UNK         0.0276 
     46 CB         33.0825   27.4780    0.7830 C.3       7 UNK        -0.1927 
     47 C          32.1456   29.8137    0.7894 C.2       7 UNK         0.5013 
     48 O          32.8992   30.3081    1.6305 O.2       7 UNK        -0.5193 
     49 N          31.5240   30.5100   -0.1745 N.am      8 UNK        -0.4253 
     50 CA         31.5834   31.9630   -0.4003 C.3       8 UNK         0.0242 
     51 CB         32.9740   32.3558   -0.9434 C.3       8 UNK        -0.2000 
     52 C          31.1802   32.8119    0.8279 C.2       8 UNK         0.4948 
     53 O          31.5909   33.9695    0.9222 O.2       8 UNK        -0.5275 
     54 N          30.4244   32.2110    1.7628 N.am      9 UNK        -0.4246 
     55 CA         30.1089   32.7018    3.1091 C.3       9 UNK         0.0261 
     56 CB         29.2085   33.9540    3.0449 C.3       9 UNK        -0.1959 
     57 C          31.3467   32.9023    4.0148 C.2       9 UNK         0.5033 
     58 O          31.2433   33.6172    5.0137 O.2       9 UNK        -0.5390 
     59 N          32.4898   32.2883    3.6689 N.am      10 UNK        -0.4215 
     60 CA         33.7490   32.4185    4.4010 C.3       10 UNK         0.0240 
     61 CB         34.9385   32.2247    3.4443 C.3       10 UNK        -0.1982 
     62 C          33.8167   31.4420    5.5816 C.2       10 UNK         0.4970 
     63 O          34.0390   31.8839    6.7101 O.2       10 UNK        -0.4916 
     64 N          33.6363   30.1422    5.3067 N.am      11 UNK        -0.4279 
     65 CA         33.6166   29.0883    6.3327 C.3       11 UNK         0.1003 
     66 C          32.2563   28.9897    7.0832 C.2       11 UNK         0.5709 
     67 N          32.1930   28.2012    8.1479 N.am      11 UNK        -0.7358 
     68 O          31.2633   29.6171    6.7184 O.2       11 UNK        -0.4999 
     69 C69        34.1488   27.7332    5.7878 C.3       12 UNK        -0.0954 
     70 S70        33.0321   26.8438    4.6523 S.3       12 UNK        -0.2268 
     71 C71        33.6544   25.1443    4.8577 C.3       12 UNK         0.0203 
     72 H72        25.5641   23.2561   -2.0901 H         1 UNK         0.0888 
     73 H73        26.2533   21.7560   -2.7185 H         1 UNK         0.0888 
     74 H74        26.7978   22.3958   -1.1667 H         1 UNK         0.0888 
     75 H75        28.7806   23.4360   -1.2844 H         1 UNK         0.3017 
     76 H76        30.0134   24.1910   -3.7453 H         1 UNK         0.0873 
     77 H77        31.4919   23.4177   -2.1064 H         1 UNK         0.0745 
     78 H78        31.8332   25.1169   -2.1830 H         1 UNK         0.0745 
     79 H79        31.6170   22.2659    0.1159 H         1 UNK         0.0705 
     80 H80        32.9290   23.4230    0.1154 H         1 UNK         0.0705 
     81 H81        33.3721   24.8309    2.1756 H         1 UNK         0.1334 
     82 H82        32.0427   23.2019    5.9046 H         1 UNK         0.1417 
     83 H83        30.6004   21.5547    2.2154 H         1 UNK         0.1562 
     84 H84        30.7137   21.2084    5.9619 H         1 UNK         0.0748 
     85 H85        30.5315   20.2640    4.5066 H         1 UNK         0.0748 
     86 H86        29.4871   23.4976    6.1739 H         1 UNK         0.0940 
     87 H87        27.7477   23.5231    6.1718 H         1 UNK         0.0940 
     88 H88        29.3545   24.0987    3.6339 H         1 UNK         0.0703 
     89 H89        27.4204   24.1606    2.6598 H         1 UNK         0.3081 
     90 H90        25.2948   24.2607    2.2127 H         1 UNK         0.0719 
     91 H91        23.3801   25.4438    4.2896 H         1 UNK         0.0809 
     92 H92        22.9350   24.6044    2.8034 H         1 UNK         0.0809 
     93 H93        23.7309   23.7319    4.1020 H         1 UNK         0.0809 
     94 H94        24.0838   26.7542    2.2831 H         1 UNK         0.2990 
     95 H95        24.6011   28.0964    0.4473 H         1 UNK         0.0690 
     96 H96        25.1320   30.3011    1.3279 H         1 UNK         0.0788 
     97 H97        26.5900   29.7237    2.1176 H         1 UNK         0.0788 
     98 H98        25.0071   29.2352    2.7172 H         1 UNK         0.0788 
     99 H99        27.3520   29.0419    0.0304 H         1 UNK         0.2993 
    100 H100       27.5792   28.0597   -3.2182 H         1 UNK         0.0949 
    101 H101       28.3782   29.9739   -1.8061 H         1 UNK         0.0767 
    102 H102       29.1701   28.8500   -0.7036 H         1 UNK         0.0767 
    103 H103       29.7370   29.0178   -2.3653 H         1 UNK         0.0767 
    104 H104       28.1302   25.9573   -1.3802 H         1 UNK         0.3013 
    105 H105       28.6008   26.5296    2.9314 H         1 UNK         0.3121 
    106 H106       30.3573   28.1619    4.6306 H         1 UNK         0.0774 
    107 H107       27.4534   28.9193    4.0243 H         1 UNK         0.0815 
    108 H108       28.6743   30.0533    4.5998 H         1 UNK         0.0815 
    109 H109       28.1865   28.7056    5.6063 H         1 UNK         0.0815 
    110 H110       31.5435   27.3250    2.7309 H         1 UNK         0.2987 
    111 H111       31.1533   28.0398    0.0532 H         1 UNK         0.0949 
    112 H112       33.7291   27.6145    1.6509 H         1 UNK         0.0806 
    113 H113       32.8506   26.4197    0.6938 H         1 UNK         0.0806 
    114 H114       33.6618   27.7495   -0.1006 H         1 UNK         0.0806 
    115 H115       30.8977   30.0094   -0.7883 H         1 UNK         0.3010 
    116 H116       30.8470   32.1853   -1.1741 H         1 UNK         0.0829 
    117 H117       33.7529   32.2190   -0.1922 H         1 UNK         0.0813 
    118 H118       33.2421   31.7612   -1.8166 H         1 UNK         0.0813 
    119 H119       32.9970   33.4026   -1.2486 H         1 UNK         0.0813 
    120 H120       30.1235   31.2553    1.5876 H         1 UNK         0.3038 
    121 H121       29.5269   31.9104    3.5791 H         1 UNK         0.0769 
    122 H122       29.7450   34.8198    2.6560 H         1 UNK         0.0811 
    123 H123       28.8381   34.2214    4.0352 H         1 UNK         0.0811 
    124 H124       28.3382   33.7846    2.4111 H         1 UNK         0.0811 
    125 H125       32.5057   31.6838    2.8497 H         1 UNK         0.3204 
    126 H126       33.8179   33.4324    4.8018 H         1 UNK         0.0748 
    127 H127       35.8844   32.3792    3.9652 H         1 UNK         0.0771 
    128 H128       34.9648   31.2226    3.0155 H         1 UNK         0.0771 
    129 H129       34.9018   32.9375    2.6202 H         1 UNK         0.0771 
    130 H130       33.4271   29.8567    4.3612 H         1 UNK         0.2980 
    131 H131       34.3337   29.3907    7.0987 H         1 UNK         0.0545 
    132 H132       31.3170   28.1182    8.6387 H         1 UNK         0.3459 
    133 H133       32.9947   27.6772    8.4604 H         1 UNK         0.3459 
    134 H134       34.3790   27.0770    6.6284 H         1 UNK         0.0616 
    135 H135       35.0989   27.8886    5.2744 H         1 UNK         0.0616 
    136 H136       33.6926   24.9027    5.9209 H         1 UNK         0.0634 
    137 H137       34.6796   25.0907    4.4888 H         1 UNK         0.0634 
@<TRIPOS>BOND
     1    1    2 1    
     2    1   72 1    
     3    1   73 1    
     4    1   74 1    
     5    2    3 2    
     6    2    4 am   BACKBONE|DICT|INTERRES
     7    4    5 1    
     8    4   75 1    
     9    5    6 1    
    10    5   35 1    
    11    5   76 1    
    12    6    7 1    
    13    6   77 1    
    14    6   78 1    
    15    7    8 1    
    16    8    9 1    
    17    8   79 1    
    18    8   80 1    
    19    9   10 ar   
    20    9   14 ar   
    21   10   11 ar   
    22   10   81 1    
    23   11   12 ar   
    24   11   71 1    
    25   12   13 ar   
    26   12   82 1    
    27   13   14 ar   
    28   13   15 1    
    29   14   83 1    
    30   15   16 1    
    31   15   84 1    
    32   15   85 1    
    33   16   17 1    
    34   17   18 1    
    35   17   86 1    
    36   17   87 1    
    37   18   19 1    
    38   18   37 1    
    39   18   88 1    
    40   19   20 am   BACKBONE|DICT|INTERRES
    41   19   89 1    
    42   20   21 2    
    43   20   22 1    
    44   22   23 1    
    45   22   24 1    
    46   22   90 1    
    47   23   91 1    
    48   23   92 1    
    49   23   93 1    
    50   24   25 am   BACKBONE|DICT|INTERRES
    51   24   94 1    
    52   25   26 2    
    53   25   27 1    
    54   27   28 1    
    55   27   29 1    
    56   27   95 1    
    57   28   96 1    
    58   28   97 1    
    59   28   98 1    
    60   29   30 am   BACKBONE|DICT|INTERRES
    61   29   99 1    
    62   30   31 2    
    63   30   32 1    
    64   32   33 1    
    65   32   34 1    
    66   32  100 1    
    67   33  101 1    
    68   33  102 1    
    69   33  103 1    
    70   34   35 am   BACKBONE|DICT|INTERRES
    71   34  104 1    
    72   35   36 2    
    73   37   38 2    
    74   37   39 am   BACKBONE|DICT|INTERRES
    75   39   40 1    
    76   39  105 1    
    77   40   41 1    
    78   40   42 1    
    79   40  106 1    
    80   41  107 1    
    81   41  108 1    
    82   41  109 1    
    83   42   43 2    
    84   42   44 am   BACKBONE|DICT|INTERRES
    85   44   45 1    
    86   44  110 1    
    87   45   46 1    
    88   45   47 1    
    89   45  111 1    
    90   46  112 1    
    91   46  113 1    
    92   46  114 1    
    93   47   48 2    
    94   47   49 am   BACKBONE|DICT|INTERRES
    95   49   50 1    
    96   49  115 1    
    97   50   51 1    
    98   50   52 1    
    99   50  116 1    
   100   51  117 1    
   101   51  118 1    
   102   51  119 1    
   103   52   53 2    
   104   52   54 am   BACKBONE|DICT|INTERRES
   105   54   55 1    
   106   54  120 1    
   107   55   56 1    
   108   55   57 1    
   109   55  121 1    
   110   56  122 1    
   111   56  123 1    
   112   56  124 1    
   113   57   58 2    
   114   57   59 am   BACKBONE|DICT|INTERRES
   115   59   60 1    
   116   59  125 1    
   117   60   61 1    
   118   60   62 1    
   119   60  126 1    
   120   61  127 1    
   121   61  128 1    
   122   61  129 1    
   123   62   63 2    
   124   62   64 am   BACKBONE|DICT|INTERRES
   125   64   65 1    
   126   64  130 1    
   127   65   66 1    
   128   65   69 1    
   129   65  131 1    
   130   66   67 am   BACKBONE|DICT|INTERRES
   131   66   68 2    
   132   67  132 1    
   133   67  133 1    
   134   69   70 1    
   135   69  134 1    
   136   69  135 1    
   137   70   71 1    
   138   71  136 1    
   139   71  137 1    
@<TRIPOS>SUBSTRUCTURE
     1 UNK         1 GROUP             0       ****    0 ROOT    
