@<TRIPOS>MOLECULE
3R136
137   139    1
SMALL
USER_CHARGES


@<TRIPOS>ATOM
      1 CA         28.4316   19.6643    1.8681 C.3       0 UNK        -0.1979 
      2 C          28.2164   20.0494    0.4116 C.2       0 UNK         0.4864 
      3 O          27.6269   19.2773   -0.3465 O.2       0 UNK        -0.5359 
      4 N          28.6969   21.2341    0.0159 N.am      1 UNK        -0.4318 
      5 CA         28.5051   21.8207   -1.3130 C.3       1 UNK         0.0824 
      6 C6         29.5831   22.8944   -1.6252 C.3       12 UNK        -0.0944 
      7 S7         29.7116   24.2165   -0.3687 S.3       12 UNK        -0.2672 
      8 C8         31.3274   23.8298    0.3763 C.3       12 UNK         0.0333 
      9 C9         31.5049   24.5945    1.6759 C.ar      12 UNK        -0.0807 
     10 C10        32.1707   25.8239    1.6950 C.ar      12 UNK        -0.0894 
     11 C11        32.2660   26.5608    2.8806 C.ar      12 UNK        -0.0804 
     12 C12        31.6936   26.0514    4.0513 C.ar      12 UNK        -0.0824 
     13 C13        31.0428   24.8141    4.0458 C.ar      12 UNK        -0.0762 
     14 C14        30.9631   24.0844    2.8579 C.ar      12 UNK        -0.0782 
     15 C15        30.3654   24.2914    5.3033 C.3       12 UNK         0.0230 
     16 S16        28.5497   24.3671    5.1563 S.3       12 UNK        -0.2608 
     17 C17        28.2671   26.1657    5.0038 C.3       12 UNK        -0.0989 
     18 CA         28.1861   26.6539    3.5268 C.3       5 UNK         0.0716 
     19 N          27.1978   25.9464    2.7057 N.am      5 UNK        -0.4135 
     20 C          25.8792   25.8557    2.9189 C.2       4 UNK         0.5031 
     21 O          25.2939   26.3816    3.8672 O.2       4 UNK        -0.5229 
     22 CA         25.0893   25.0654    1.8551 C.3       4 UNK         0.0329 
     23 CB         23.5636   25.2668    1.9705 C.3       4 UNK        -0.2001 
     24 N          25.5371   25.3356    0.4801 N.am      4 UNK        -0.4303 
     25 C          25.5974   26.5354   -0.1243 C.2       3 UNK         0.5044 
     26 O          25.3436   27.5935    0.4494 O.2       3 UNK        -0.5152 
     27 CA         26.0504   26.5955   -1.5968 C.3       3 UNK         0.0319 
     28 CB         27.4241   27.2762   -1.7008 C.3       3 UNK        -0.2001 
     29 N          26.1204   25.2879   -2.2505 N.am      3 UNK        -0.4354 
     30 C          25.0636   24.5456   -2.6116 C.2       2 UNK         0.4964 
     31 O          23.8977   24.9326   -2.5292 O.2       2 UNK        -0.5047 
     32 CA         25.3475   23.1192   -3.1250 C.3       2 UNK         0.0288 
     33 CB         25.2173   23.0651   -4.6563 C.3       2 UNK        -0.2113 
     34 N          26.6555   22.5723   -2.7359 N.am      2 UNK        -0.4145 
     35 C          27.0745   22.3780   -1.4760 C.2       1 UNK         0.5006 
     36 O          26.4016   22.6720   -0.4825 O.2       1 UNK        -0.5103 
     37 C          28.1150   28.1952    3.4272 C.2       5 UNK         0.5055 
     38 O          28.8559   28.8669    4.1458 O.2       5 UNK        -0.5220 
     39 N          27.2956   28.7497    2.5195 N.am      6 UNK        -0.4450 
     40 CA         27.2171   30.1934    2.2588 C.3       6 UNK         0.0367 
     41 CB         25.7930   30.5490    1.7980 C.3       6 UNK        -0.1929 
     42 C          28.2632   30.6819    1.2354 C.2       6 UNK         0.5070 
     43 O          28.2403   31.8593    0.8760 O.2       6 UNK        -0.5237 
     44 N          29.1409   29.7833    0.7625 N.am      7 UNK        -0.4739 
     45 CA         30.1500   30.0353   -0.2715 C.3       7 UNK         0.0276 
     46 CB         30.8452   28.7135   -0.6369 C.3       7 UNK        -0.1927 
     47 C          31.1990   31.0993    0.0975 C.2       7 UNK         0.5013 
     48 O          31.6420   31.8296   -0.7902 O.2       7 UNK        -0.5193 
     49 N          31.5795   31.1721    1.3790 N.am      8 UNK        -0.4253 
     50 CA         32.5455   32.1316    1.9072 C.3       8 UNK         0.0242 
     51 CB         33.9818   31.7137    1.5311 C.3       8 UNK        -0.2000 
     52 C          32.4013   32.2035    3.4281 C.2       8 UNK         0.4948 
     53 O          32.1585   31.1762    4.0632 O.2       8 UNK        -0.5275 
     54 N          32.6200   33.3981    3.9930 N.am      9 UNK        -0.4246 
     55 CA         32.6874   33.6210    5.4426 C.3       9 UNK         0.0261 
     56 CB         32.5563   35.1245    5.7350 C.3       9 UNK        -0.1959 
     57 C          33.9765   33.0604    6.0726 C.2       9 UNK         0.5033 
     58 O          33.9797   32.7370    7.2613 O.2       9 UNK        -0.5390 
     59 N          35.0379   32.9309    5.2611 N.am      10 UNK        -0.4215 
     60 CA         36.3564   32.4052    5.6309 C.3       10 UNK         0.0240 
     61 CB         37.3007   32.5336    4.4240 C.3       10 UNK        -0.1982 
     62 C          36.3486   30.9554    6.1508 C.2       10 UNK         0.4970 
     63 O          37.2800   30.5742    6.8611 O.2       10 UNK        -0.4916 
     64 N          35.3085   30.1836    5.8088 N.am      11 UNK        -0.4279 
     65 CA         35.0617   28.8374    6.3446 C.3       11 UNK         0.1003 
     66 C          34.6250   28.8172    7.8406 C.2       11 UNK         0.5709 
     67 N          34.2451   29.9374    8.4474 N.am      11 UNK        -0.7358 
     68 O          34.6388   27.7597    8.4661 O.2       11 UNK        -0.4999 
     69 C69        34.0538   28.0444    5.4741 C.3       12 UNK        -0.0954 
     70 S70        34.5540   27.9090    3.7234 S.3       12 UNK        -0.2268 
     71 C71        32.9387   27.9280    2.8820 C.3       12 UNK         0.0203 
     72 H72        28.9702   20.4354    2.4190 H         1 UNK         0.0888 
     73 H73        27.4718   19.5058    2.3591 H         1 UNK         0.0888 
     74 H74        29.0045   18.7396    1.9314 H         1 UNK         0.0888 
     75 H75        29.1276   21.8486    0.6904 H         1 UNK         0.3017 
     76 H76        28.6179   21.0195   -2.0470 H         1 UNK         0.0873 
     77 H77        29.4003   23.3611   -2.5948 H         1 UNK         0.0745 
     78 H78        30.5532   22.4057   -1.7286 H         1 UNK         0.0745 
     79 H79        31.4033   22.7582    0.5671 H         1 UNK         0.0705 
     80 H80        32.1220   24.0778   -0.3292 H         1 UNK         0.0705 
     81 H81        32.5909   26.2173    0.7795 H         1 UNK         0.1334 
     82 H82        31.7287   26.6300    4.9627 H         1 UNK         0.1417 
     83 H83        30.4362   23.1401    2.8469 H         1 UNK         0.1562 
     84 H84        30.6838   24.8519    6.1837 H         1 UNK         0.0748 
     85 H85        30.6659   23.2565    5.4729 H         1 UNK         0.0748 
     86 H86        29.0640   26.6833    5.5408 H         1 UNK         0.0940 
     87 H87        27.3483   26.4127    5.5378 H         1 UNK         0.0940 
     88 H88        29.1340   26.4148    3.0492 H         1 UNK         0.0703 
     89 H89        27.5713   25.4747    1.8942 H         1 UNK         0.3081 
     90 H90        25.2989   24.0111    2.0425 H         1 UNK         0.0719 
     91 H91        23.0291   24.6766    1.2261 H         1 UNK         0.0809 
     92 H92        23.2831   26.3119    1.8345 H         1 UNK         0.0809 
     93 H93        23.2002   24.9567    2.9510 H         1 UNK         0.0809 
     94 H94        25.8082   24.5121   -0.0505 H         1 UNK         0.2990 
     95 H95        25.3231   27.2081   -2.1335 H         1 UNK         0.0690 
     96 H96        27.7400   27.3820   -2.7387 H         1 UNK         0.0788 
     97 H97        28.1891   26.7085   -1.1715 H         1 UNK         0.0788 
     98 H98        27.4010   28.2776   -1.2681 H         1 UNK         0.0788 
     99 H99        27.0411   24.8901   -2.3631 H         1 UNK         0.2993 
    100 H100       24.5823   22.4709   -2.6924 H         1 UNK         0.0949 
    101 H101       24.2431   23.4354   -4.9795 H         1 UNK         0.0767 
    102 H102       25.9768   23.6746   -5.1477 H         1 UNK         0.0767 
    103 H103       25.3113   22.0444   -5.0278 H         1 UNK         0.0767 
    104 H104       27.2711   22.3151   -3.4946 H         1 UNK         0.3013 
    105 H105       26.6932   28.1598    1.9537 H         1 UNK         0.3121 
    106 H106       27.4043   30.7343    3.1890 H         1 UNK         0.0774 
    107 H107       25.6565   31.6303    1.7550 H         1 UNK         0.0815 
    108 H108       25.5808   30.1594    0.8023 H         1 UNK         0.0815 
    109 H109       25.0407   30.1553    2.4817 H         1 UNK         0.0815 
    110 H110       29.0822   28.8417    1.1184 H         1 UNK         0.2987 
    111 H111       29.6243   30.3995   -1.1569 H         1 UNK         0.0949 
    112 H112       31.3124   28.2528    0.2321 H         1 UNK         0.0806 
    113 H113       30.1466   27.9946   -1.0607 H         1 UNK         0.0806 
    114 H114       31.6267   28.8734   -1.3812 H         1 UNK         0.0806 
    115 H115       31.1516   30.5682    2.0697 H         1 UNK         0.3010 
    116 H116       32.3281   33.1154    1.4852 H         1 UNK         0.0829 
    117 H117       34.1203   31.6765    0.4506 H         1 UNK         0.0813 
    118 H118       34.7135   32.4219    1.9210 H         1 UNK         0.0813 
    119 H119       34.2322   30.7307    1.9326 H         1 UNK         0.0813 
    120 H120       32.7976   34.1978    3.4010 H         1 UNK         0.3038 
    121 H121       31.8442   33.1072    5.9100 H         1 UNK         0.0769 
    122 H122       32.5773   35.3153    6.8091 H         1 UNK         0.0811 
    123 H123       31.6143   35.5219    5.3564 H         1 UNK         0.0811 
    124 H124       33.3686   35.6981    5.2869 H         1 UNK         0.0811 
    125 H125       34.9317   33.2349    4.3052 H         1 UNK         0.3204 
    126 H126       36.7415   33.0323    6.4376 H         1 UNK         0.0748 
    127 H127       38.3033   32.1826    4.6730 H         1 UNK         0.0771 
    128 H128       36.9520   31.9450    3.5742 H         1 UNK         0.0771 
    129 H129       37.3957   33.5704    4.1005 H         1 UNK         0.0771 
    130 H130       34.5813   30.5671    5.2233 H         1 UNK         0.2980 
    131 H131       36.0107   28.2991    6.3063 H         1 UNK         0.0545 
    132 H132       34.2231   30.8228    7.9538 H         1 UNK         0.3459 
    133 H133       33.9713   29.9000    9.4161 H         1 UNK         0.3459 
    134 H134       33.0719   28.5175    5.5325 H         1 UNK         0.0616 
    135 H135       33.9353   27.0301    5.8594 H         1 UNK         0.0616 
    136 H136       32.2777   28.6599    3.3458 H         1 UNK         0.0634 
    137 H137       33.0982   28.2738    1.8601 H         1 UNK         0.0634 
@<TRIPOS>BOND
     1    1    2 1    
     2    1   72 1    
     3    1   73 1    
     4    1   74 1    
     5    2    3 2    
     6    2    4 am   BACKBONE|DICT|INTERRES
     7    4    5 1    
     8    4   75 1    
     9    5    6 1    
    10    5   35 1    
    11    5   76 1    
    12    6    7 1    
    13    6   77 1    
    14    6   78 1    
    15    7    8 1    
    16    8    9 1    
    17    8   79 1    
    18    8   80 1    
    19    9   10 ar   
    20    9   14 ar   
    21   10   11 ar   
    22   10   81 1    
    23   11   12 ar   
    24   11   71 1    
    25   12   13 ar   
    26   12   82 1    
    27   13   14 ar   
    28   13   15 1    
    29   14   83 1    
    30   15   16 1    
    31   15   84 1    
    32   15   85 1    
    33   16   17 1    
    34   17   18 1    
    35   17   86 1    
    36   17   87 1    
    37   18   19 1    
    38   18   37 1    
    39   18   88 1    
    40   19   20 am   BACKBONE|DICT|INTERRES
    41   19   89 1    
    42   20   21 2    
    43   20   22 1    
    44   22   23 1    
    45   22   24 1    
    46   22   90 1    
    47   23   91 1    
    48   23   92 1    
    49   23   93 1    
    50   24   25 am   BACKBONE|DICT|INTERRES
    51   24   94 1    
    52   25   26 2    
    53   25   27 1    
    54   27   28 1    
    55   27   29 1    
    56   27   95 1    
    57   28   96 1    
    58   28   97 1    
    59   28   98 1    
    60   29   30 am   BACKBONE|DICT|INTERRES
    61   29   99 1    
    62   30   31 2    
    63   30   32 1    
    64   32   33 1    
    65   32   34 1    
    66   32  100 1    
    67   33  101 1    
    68   33  102 1    
    69   33  103 1    
    70   34   35 am   BACKBONE|DICT|INTERRES
    71   34  104 1    
    72   35   36 2    
    73   37   38 2    
    74   37   39 am   BACKBONE|DICT|INTERRES
    75   39   40 1    
    76   39  105 1    
    77   40   41 1    
    78   40   42 1    
    79   40  106 1    
    80   41  107 1    
    81   41  108 1    
    82   41  109 1    
    83   42   43 2    
    84   42   44 am   BACKBONE|DICT|INTERRES
    85   44   45 1    
    86   44  110 1    
    87   45   46 1    
    88   45   47 1    
    89   45  111 1    
    90   46  112 1    
    91   46  113 1    
    92   46  114 1    
    93   47   48 2    
    94   47   49 am   BACKBONE|DICT|INTERRES
    95   49   50 1    
    96   49  115 1    
    97   50   51 1    
    98   50   52 1    
    99   50  116 1    
   100   51  117 1    
   101   51  118 1    
   102   51  119 1    
   103   52   53 2    
   104   52   54 am   BACKBONE|DICT|INTERRES
   105   54   55 1    
   106   54  120 1    
   107   55   56 1    
   108   55   57 1    
   109   55  121 1    
   110   56  122 1    
   111   56  123 1    
   112   56  124 1    
   113   57   58 2    
   114   57   59 am   BACKBONE|DICT|INTERRES
   115   59   60 1    
   116   59  125 1    
   117   60   61 1    
   118   60   62 1    
   119   60  126 1    
   120   61  127 1    
   121   61  128 1    
   122   61  129 1    
   123   62   63 2    
   124   62   64 am   BACKBONE|DICT|INTERRES
   125   64   65 1    
   126   64  130 1    
   127   65   66 1    
   128   65   69 1    
   129   65  131 1    
   130   66   67 am   BACKBONE|DICT|INTERRES
   131   66   68 2    
   132   67  132 1    
   133   67  133 1    
   134   69   70 1    
   135   69  134 1    
   136   69  135 1    
   137   70   71 1    
   138   71  136 1    
   139   71  137 1    
@<TRIPOS>SUBSTRUCTURE
     1 UNK         1 GROUP             0       ****    0 ROOT    
