@<TRIPOS>MOLECULE
3R136
137   139    1
SMALL
USER_CHARGES


@<TRIPOS>ATOM
      1 CA         32.9545   22.3693    2.5029 C.3       0 UNK        -0.1979 
      2 C          31.8347   22.9488    1.6531 C.2       0 UNK         0.4864 
      3 O          31.9035   24.1129    1.2611 O.2       0 UNK        -0.5359 
      4 N          30.8206   22.1301    1.3376 N.am      1 UNK        -0.4318 
      5 CA         29.6005   22.4949    0.5969 C.3       1 UNK         0.0824 
      6 C6         28.5874   21.3216    0.5300 C.3       12 UNK        -0.0944 
      7 S7         28.3327   20.4531    2.1155 S.3       12 UNK        -0.2672 
      8 C8         26.8171   21.2439    2.7547 C.3       12 UNK         0.0333 
      9 C9         27.0237   22.6104    3.4100 C.ar      12 UNK        -0.0807 
     10 C10        28.2135   22.9491    4.0693 C.ar      12 UNK        -0.0894 
     11 C11        28.3458   24.1790    4.7217 C.ar      12 UNK        -0.0804 
     12 C12        27.2604   25.0608    4.7443 C.ar      12 UNK        -0.0824 
     13 C13        26.0821   24.7582    4.0577 C.ar      12 UNK        -0.0762 
     14 C14        25.9697   23.5301    3.3989 C.ar      12 UNK        -0.0782 
     15 C15        24.9270   25.7501    4.0266 C.3       12 UNK         0.0230 
     16 S16        25.0377   26.8720    2.5913 S.3       12 UNK        -0.2608 
     17 C17        26.0926   28.2234    3.2204 C.3       12 UNK        -0.0989 
     18 CA         27.5894   28.0630    2.8458 C.3       5 UNK         0.0716 
     19 N          27.8325   28.1720    1.4120 N.am      5 UNK        -0.4135 
     20 C          28.1820   27.1730    0.5967 C.2       4 UNK         0.5031 
     21 O          28.1926   25.9850    0.9204 O.2       4 UNK        -0.5229 
     22 CA         28.5942   27.5616   -0.8383 C.3       4 UNK         0.0329 
     23 CB         28.4908   29.0731   -1.1508 C.3       4 UNK        -0.2001 
     24 N          29.9336   27.0763   -1.1820 N.am      4 UNK        -0.4303 
     25 C          31.0822   27.2949   -0.5225 C.2       3 UNK         0.5044 
     26 O          31.1714   27.9285    0.5311 O.2       3 UNK        -0.5152 
     27 CA         32.3406   26.7017   -1.1792 C.3       3 UNK         0.0319 
     28 CB         33.6080   26.8757   -0.3263 C.3       3 UNK        -0.2001 
     29 N          32.1342   25.2783   -1.4373 N.am      3 UNK        -0.4354 
     30 C          31.8382   24.7406   -2.6292 C.2       2 UNK         0.4964 
     31 O          31.7724   25.3904   -3.6728 O.2       2 UNK        -0.5047 
     32 CA         31.5324   23.2313   -2.6711 C.3       2 UNK         0.0288 
     33 CB         32.7818   22.4407   -3.0920 C.3       2 UNK        -0.2113 
     34 N          31.0398   22.7070   -1.3958 N.am      2 UNK        -0.4145 
     35 C          29.8647   23.0271   -0.8315 C.2       1 UNK         0.5006 
     36 O          29.0081   23.7076   -1.3978 O.2       1 UNK        -0.5103 
     37 C          28.4561   29.1265    3.5415 C.2       5 UNK         0.5055 
     38 O          28.9898   30.0247    2.8794 O.2       5 UNK        -0.5220 
     39 N          28.5689   29.0166    4.8727 N.am      6 UNK        -0.4450 
     40 CA         29.4572   29.8159    5.7202 C.3       6 UNK         0.0367 
     41 CB         29.3369   29.3521    7.1796 C.3       6 UNK        -0.1929 
     42 C          29.2517   31.3348    5.6101 C.2       6 UNK         0.5070 
     43 O          30.2315   32.0779    5.5749 O.2       6 UNK        -0.5237 
     44 N          27.9875   31.7613    5.5036 N.am      7 UNK        -0.4739 
     45 CA         27.6019   33.1626    5.3185 C.3       7 UNK         0.0276 
     46 CB         26.0985   33.3065    5.6079 C.3       7 UNK        -0.1927 
     47 C          27.9348   33.7235    3.9221 C.2       7 UNK         0.5013 
     48 O          27.9764   34.9452    3.7701 O.2       7 UNK        -0.5193 
     49 N          28.1401   32.8419    2.9336 N.am      8 UNK        -0.4253 
     50 CA         28.4185   33.2020    1.5452 C.3       8 UNK         0.0242 
     51 CB         27.6139   32.2895    0.6049 C.3       8 UNK        -0.2000 
     52 C          29.9185   33.1375    1.2275 C.2       8 UNK         0.4948 
     53 O          30.4411   34.0968    0.6578 O.2       8 UNK        -0.5275 
     54 N          30.5852   32.0263    1.5770 N.am      9 UNK        -0.4246 
     55 CA         31.9863   31.7791    1.2119 C.3       9 UNK         0.0261 
     56 CB         32.0765   31.2537   -0.2365 C.3       9 UNK        -0.1959 
     57 C          32.7435   30.9042    2.2266 C.2       9 UNK         0.5033 
     58 O          33.6833   30.2049    1.8432 O.2       9 UNK        -0.5390 
     59 N          32.3605   30.9802    3.5106 N.am      10 UNK        -0.4215 
     60 CA         33.0647   30.4285    4.6821 C.3       10 UNK         0.0240 
     61 CB         34.4419   31.1082    4.8449 C.3       10 UNK        -0.1982 
     62 C          33.1923   28.8906    4.7597 C.2       10 UNK         0.4970 
     63 O          33.7895   28.4094    5.7238 O.2       10 UNK        -0.4916 
     64 N          32.6509   28.1467    3.7836 N.am      11 UNK        -0.4279 
     65 CA         32.8210   26.6887    3.6249 C.3       11 UNK         0.1003 
     66 C          34.3017   26.2615    3.3724 C.2       11 UNK         0.5709 
     67 N          35.1433   27.1302    2.8207 N.am      11 UNK        -0.7358 
     68 O          34.6967   25.1338    3.6590 O.2       11 UNK        -0.4999 
     69 C69        32.1205   25.8572    4.7418 C.3       12 UNK        -0.0954 
     70 S70        30.3198   26.1227    4.7416 S.3       12 UNK        -0.2268 
     71 C71        29.6623   24.5524    5.3945 C.3       12 UNK         0.0203 
     72 H72        32.8970   22.7593    3.5179 H         1 UNK         0.0888 
     73 H73        32.9071   21.2816    2.5521 H         1 UNK         0.0888 
     74 H74        33.9234   22.6473    2.0885 H         1 UNK         0.0888 
     75 H75        30.8235   21.1844    1.6943 H         1 UNK         0.3017 
     76 H76        29.1347   23.3133    1.1511 H         1 UNK         0.0873 
     77 H77        28.9272   20.5698   -0.1855 H         1 UNK         0.0745 
     78 H78        27.6250   21.6750    0.1550 H         1 UNK         0.0745 
     79 H79        26.3817   20.5797    3.5023 H         1 UNK         0.0705 
     80 H80        26.0862   21.3121    1.9475 H         1 UNK         0.0705 
     81 H81        29.0409   22.2540    4.0827 H         1 UNK         0.1334 
     82 H82        27.3492   26.0018    5.2672 H         1 UNK         0.1417 
     83 H83        25.0498   23.2861    2.8847 H         1 UNK         0.1562 
     84 H84        24.8819   26.3199    4.9557 H         1 UNK         0.0748 
     85 H85        23.9826   25.2070    3.9666 H         1 UNK         0.0748 
     86 H86        25.9581   28.2885    4.3011 H         1 UNK         0.0940 
     87 H87        25.7045   29.1624    2.8205 H         1 UNK         0.0940 
     88 H88        27.9501   27.0955    3.1909 H         1 UNK         0.0703 
     89 H89        27.9593   29.1181    1.0851 H         1 UNK         0.3081 
     90 H90        27.9011   27.0393   -1.4995 H         1 UNK         0.0719 
     91 H91        29.1653   29.6667   -0.5327 H         1 UNK         0.0809 
     92 H92        28.7454   29.2729   -2.1917 H         1 UNK         0.0809 
     93 H93        27.4754   29.4424   -1.0009 H         1 UNK         0.0809 
     94 H94        29.9796   26.4874   -2.0018 H         1 UNK         0.2990 
     95 H95        32.4960   27.2455   -2.1132 H         1 UNK         0.0690 
     96 H96        34.4950   26.5414   -0.8640 H         1 UNK         0.0788 
     97 H97        33.5415   26.2993    0.5943 H         1 UNK         0.0788 
     98 H98        33.7659   27.9207   -0.0546 H         1 UNK         0.0788 
     99 H99        32.0942   24.6939   -0.6053 H         1 UNK         0.2993 
    100 H100       30.7551   23.0760   -3.4225 H         1 UNK         0.0949 
    101 H101       32.5625   21.3780   -3.1983 H         1 UNK         0.0767 
    102 H102       33.1580   22.7899   -4.0548 H         1 UNK         0.0767 
    103 H103       33.5907   22.5475   -2.3679 H         1 UNK         0.0767 
    104 H104       31.6758   22.1312   -0.8637 H         1 UNK         0.3013 
    105 H105       28.0980   28.2531    5.3339 H         1 UNK         0.3121 
    106 H106       30.4688   29.5973    5.3862 H         1 UNK         0.0774 
    107 H107       28.3253   29.4840    7.5653 H         1 UNK         0.0815 
    108 H108       29.6041   28.3001    7.2845 H         1 UNK         0.0815 
    109 H109       30.0089   29.9191    7.8254 H         1 UNK         0.0815 
    110 H110       27.2435   31.0793    5.5355 H         1 UNK         0.2987 
    111 H111       28.1500   33.7657    6.0460 H         1 UNK         0.0949 
    112 H112       25.4954   32.7173    4.9159 H         1 UNK         0.0806 
    113 H113       25.8564   32.9881    6.6220 H         1 UNK         0.0806 
    114 H114       25.7801   34.3457    5.5131 H         1 UNK         0.0806 
    115 H115       28.1622   31.8542    3.1584 H         1 UNK         0.3010 
    116 H116       28.0908   34.2269    1.3564 H         1 UNK         0.0829 
    117 H117       26.5420   32.4366    0.7374 H         1 UNK         0.0813 
    118 H118       27.8432   32.5021   -0.4404 H         1 UNK         0.0813 
    119 H119       27.8278   31.2373    0.7806 H         1 UNK         0.0813 
    120 H120       30.0848   31.2644    2.0332 H         1 UNK         0.3038 
    121 H121       32.5198   32.7315    1.2409 H         1 UNK         0.0769 
    122 H122       33.1099   31.0690   -0.5322 H         1 UNK         0.0811 
    123 H123       31.6671   31.9723   -0.9462 H         1 UNK         0.0811 
    124 H124       31.5298   30.3210   -0.3573 H         1 UNK         0.0811 
    125 H125       31.5688   31.5710    3.7352 H         1 UNK         0.3204 
    126 H126       32.4760   30.7170    5.5522 H         1 UNK         0.0748 
    127 H127       34.9123   30.8262    5.7878 H         1 UNK         0.0771 
    128 H128       35.1297   30.8298    4.0458 H         1 UNK         0.0771 
    129 H129       34.3505   32.1944    4.8462 H         1 UNK         0.0771 
    130 H130       32.2136   28.6171    3.0031 H         1 UNK         0.2980 
    131 H131       32.3143   26.4454    2.6909 H         1 UNK         0.0545 
    132 H132       36.0977   26.8555    2.6533 H         1 UNK         0.3459 
    133 H133       34.8259   28.0534    2.5612 H         1 UNK         0.3459 
    134 H134       32.5185   26.0950    5.7286 H         1 UNK         0.0616 
    135 H135       32.3021   24.7942    4.5860 H         1 UNK         0.0616 
    136 H136       29.5085   24.6489    6.4699 H         1 UNK         0.0634 
    137 H137       30.3952   23.7568    5.2554 H         1 UNK         0.0634 
@<TRIPOS>BOND
     1    1    2 1    
     2    1   72 1    
     3    1   73 1    
     4    1   74 1    
     5    2    3 2    
     6    2    4 am   BACKBONE|DICT|INTERRES
     7    4    5 1    
     8    4   75 1    
     9    5    6 1    
    10    5   35 1    
    11    5   76 1    
    12    6    7 1    
    13    6   77 1    
    14    6   78 1    
    15    7    8 1    
    16    8    9 1    
    17    8   79 1    
    18    8   80 1    
    19    9   10 ar   
    20    9   14 ar   
    21   10   11 ar   
    22   10   81 1    
    23   11   12 ar   
    24   11   71 1    
    25   12   13 ar   
    26   12   82 1    
    27   13   14 ar   
    28   13   15 1    
    29   14   83 1    
    30   15   16 1    
    31   15   84 1    
    32   15   85 1    
    33   16   17 1    
    34   17   18 1    
    35   17   86 1    
    36   17   87 1    
    37   18   19 1    
    38   18   37 1    
    39   18   88 1    
    40   19   20 am   BACKBONE|DICT|INTERRES
    41   19   89 1    
    42   20   21 2    
    43   20   22 1    
    44   22   23 1    
    45   22   24 1    
    46   22   90 1    
    47   23   91 1    
    48   23   92 1    
    49   23   93 1    
    50   24   25 am   BACKBONE|DICT|INTERRES
    51   24   94 1    
    52   25   26 2    
    53   25   27 1    
    54   27   28 1    
    55   27   29 1    
    56   27   95 1    
    57   28   96 1    
    58   28   97 1    
    59   28   98 1    
    60   29   30 am   BACKBONE|DICT|INTERRES
    61   29   99 1    
    62   30   31 2    
    63   30   32 1    
    64   32   33 1    
    65   32   34 1    
    66   32  100 1    
    67   33  101 1    
    68   33  102 1    
    69   33  103 1    
    70   34   35 am   BACKBONE|DICT|INTERRES
    71   34  104 1    
    72   35   36 2    
    73   37   38 2    
    74   37   39 am   BACKBONE|DICT|INTERRES
    75   39   40 1    
    76   39  105 1    
    77   40   41 1    
    78   40   42 1    
    79   40  106 1    
    80   41  107 1    
    81   41  108 1    
    82   41  109 1    
    83   42   43 2    
    84   42   44 am   BACKBONE|DICT|INTERRES
    85   44   45 1    
    86   44  110 1    
    87   45   46 1    
    88   45   47 1    
    89   45  111 1    
    90   46  112 1    
    91   46  113 1    
    92   46  114 1    
    93   47   48 2    
    94   47   49 am   BACKBONE|DICT|INTERRES
    95   49   50 1    
    96   49  115 1    
    97   50   51 1    
    98   50   52 1    
    99   50  116 1    
   100   51  117 1    
   101   51  118 1    
   102   51  119 1    
   103   52   53 2    
   104   52   54 am   BACKBONE|DICT|INTERRES
   105   54   55 1    
   106   54  120 1    
   107   55   56 1    
   108   55   57 1    
   109   55  121 1    
   110   56  122 1    
   111   56  123 1    
   112   56  124 1    
   113   57   58 2    
   114   57   59 am   BACKBONE|DICT|INTERRES
   115   59   60 1    
   116   59  125 1    
   117   60   61 1    
   118   60   62 1    
   119   60  126 1    
   120   61  127 1    
   121   61  128 1    
   122   61  129 1    
   123   62   63 2    
   124   62   64 am   BACKBONE|DICT|INTERRES
   125   64   65 1    
   126   64  130 1    
   127   65   66 1    
   128   65   69 1    
   129   65  131 1    
   130   66   67 am   BACKBONE|DICT|INTERRES
   131   66   68 2    
   132   67  132 1    
   133   67  133 1    
   134   69   70 1    
   135   69  134 1    
   136   69  135 1    
   137   70   71 1    
   138   71  136 1    
   139   71  137 1    
@<TRIPOS>SUBSTRUCTURE
     1 UNK         1 GROUP             0       ****    0 ROOT    
