@<TRIPOS>MOLECULE
3R136
137   139    1
SMALL
USER_CHARGES


@<TRIPOS>ATOM
      1 CA         26.7252   21.5552    1.4709 C.3       0 UNK        -0.1979 
      2 C          27.6669   22.0425    0.3800 C.2       0 UNK         0.4864 
      3 O          28.1236   23.1827    0.4477 O.2       0 UNK        -0.5359 
      4 N          27.9463   21.1860   -0.6156 N.am      1 UNK        -0.4318 
      5 CA         28.7908   21.4199   -1.7996 C.3       1 UNK         0.0824 
      6 C6         30.3151   21.2055   -1.5374 C.3       12 UNK        -0.0944 
      7 S7         31.1227   22.4449   -0.4608 S.3       12 UNK        -0.2672 
      8 C8         31.2837   21.5013    1.0883 C.3       12 UNK         0.0333 
      9 C9         31.3203   22.4044    2.3138 C.ar      12 UNK        -0.0807 
     10 C10        32.3740   23.3023    2.5030 C.ar      12 UNK        -0.0894 
     11 C11        32.4396   24.1052    3.6466 C.ar      12 UNK        -0.0804 
     12 C12        31.4267   23.9953    4.6118 C.ar      12 UNK        -0.0824 
     13 C13        30.3706   23.0960    4.4395 C.ar      12 UNK        -0.0762 
     14 C14        30.3213   22.3086    3.2860 C.ar      12 UNK        -0.0782 
     15 C15        29.3156   22.9206    5.5245 C.3       12 UNK         0.0230 
     16 S16        27.6697   23.4753    4.9825 S.3       12 UNK        -0.2608 
     17 C17        27.6743   25.2456    5.4358 C.3       12 UNK        -0.0989 
     18 CA         28.2750   26.1850    4.3529 C.3       5 UNK         0.0716 
     19 N          27.7861   25.9031    2.9989 N.am      5 UNK        -0.4135 
     20 C          26.5564   26.1158    2.5050 C.2       4 UNK         0.5031 
     21 O          25.5927   26.4708    3.1861 O.2       4 UNK        -0.5229 
     22 CA         26.3900   25.9413    0.9792 C.3       4 UNK         0.0329 
     23 CB         25.4102   26.9693    0.3755 C.3       4 UNK        -0.2001 
     24 N          27.6659   25.9486    0.2464 N.am      4 UNK        -0.4303 
     25 C          28.5748   26.9359    0.1987 C.2       3 UNK         0.5044 
     26 O          28.4290   28.0274    0.7483 O.2       3 UNK        -0.5152 
     27 CA         29.9094   26.6257   -0.4954 C.3       3 UNK         0.0319 
     28 CB         30.9394   26.1483    0.5432 C.3       3 UNK        -0.2001 
     29 N          29.7964   25.6240   -1.5569 N.am      3 UNK        -0.4354 
     30 C          29.2644   25.8572   -2.7670 C.2       2 UNK         0.4964 
     31 O          28.7959   26.9437   -3.1077 O.2       2 UNK        -0.5047 
     32 CA         29.2742   24.7002   -3.7837 C.3       2 UNK         0.0288 
     33 CB         30.4133   24.8890   -4.7995 C.3       2 UNK        -0.2113 
     34 N          29.4207   23.3916   -3.1448 N.am      2 UNK        -0.4145 
     35 C          28.4196   22.7123   -2.5702 C.2       1 UNK         0.5006 
     36 O          27.2375   23.0592   -2.6473 O.2       1 UNK        -0.5103 
     37 C          28.1320   27.6829    4.7330 C.2       5 UNK         0.5055 
     38 O          27.9748   27.9954    5.9150 O.2       5 UNK        -0.5220 
     39 N          28.1372   28.5816    3.7357 N.am      6 UNK        -0.4450 
     40 CA         27.8190   29.9972    3.9070 C.3       6 UNK         0.0367 
     41 CB         27.2412   30.5369    2.5878 C.3       6 UNK        -0.1929 
     42 C          29.0457   30.8225    4.3097 C.2       6 UNK         0.5070 
     43 O          30.1582   30.5515    3.8496 O.2       6 UNK        -0.5237 
     44 N          28.7988   31.8955    5.0732 N.am      7 UNK        -0.4739 
     45 CA         29.7933   32.9200    5.4117 C.3       7 UNK         0.0276 
     46 CB         29.2092   33.8807    6.4586 C.3       7 UNK        -0.1927 
     47 C          30.2859   33.6962    4.1775 C.2       7 UNK         0.5013 
     48 O          31.4514   34.0866    4.1339 O.2       7 UNK        -0.5193 
     49 N          29.4161   33.8375    3.1656 N.am      8 UNK        -0.4253 
     50 CA         29.7337   34.3891    1.8442 C.3       8 UNK         0.0242 
     51 CB         28.4341   34.5451    1.0380 C.3       8 UNK        -0.2000 
     52 C          30.7579   33.5509    1.0534 C.2       8 UNK         0.4948 
     53 O          31.4642   34.1071    0.2125 O.2       8 UNK        -0.5275 
     54 N          30.8409   32.2464    1.3523 N.am      9 UNK        -0.4246 
     55 CA         31.8434   31.3206    0.8216 C.3       9 UNK         0.0261 
     56 CB         31.1677   29.9649    0.5526 C.3       9 UNK        -0.1959 
     57 C          33.0444   31.1575    1.7749 C.2       9 UNK         0.5033 
     58 O          33.8987   30.3100    1.5117 O.2       9 UNK        -0.5390 
     59 N          33.0884   31.9488    2.8602 N.am      10 UNK        -0.4215 
     60 CA         34.0711   31.9256    3.9478 C.3       10 UNK         0.0240 
     61 CB         35.4643   32.3603    3.4426 C.3       10 UNK        -0.1982 
     62 C          34.0896   30.5883    4.7134 C.2       10 UNK         0.4970 
     63 O          35.1652   30.1250    5.0986 O.2       10 UNK        -0.4916 
     64 N          32.9065   29.9980    4.9279 N.am      11 UNK        -0.4279 
     65 CA         32.7250   28.7279    5.6387 C.3       11 UNK         0.1003 
     66 C          31.5373   28.7811    6.6380 C.2       11 UNK         0.5709 
     67 N          31.1347   27.6450    7.1909 N.am      11 UNK        -0.7358 
     68 O          31.0062   29.8431    6.9564 O.2       11 UNK        -0.4999 
     69 C69        32.6773   27.5276    4.6468 C.3       12 UNK        -0.0954 
     70 S70        33.6519   26.1178    5.2622 S.3       12 UNK        -0.2268 
     71 C71        33.6532   25.0247    3.8015 C.3       12 UNK         0.0203 
     72 H72        26.4827   20.4985    1.3609 H         1 UNK         0.0888 
     73 H73        27.1785   21.6988    2.4507 H         1 UNK         0.0888 
     74 H74        25.7964   22.1241    1.4422 H         1 UNK         0.0888 
     75 H75        27.4973   20.2813   -0.6001 H         1 UNK         0.3017 
     76 H76        28.4989   20.6260   -2.4889 H         1 UNK         0.0873 
     77 H77        30.4672   20.2127   -1.1114 H         1 UNK         0.0745 
     78 H78        30.8597   21.1771   -2.4826 H         1 UNK         0.0745 
     79 H79        30.4544   20.7974    1.1708 H         1 UNK         0.0705 
     80 H80        32.1939   20.9015    1.0493 H         1 UNK         0.0705 
     81 H81        33.1543   23.3664    1.7565 H         1 UNK         0.1334 
     82 H82        31.4615   24.5834    5.5164 H         1 UNK         0.1417 
     83 H83        29.5103   21.6054    3.1585 H         1 UNK         0.1562 
     84 H84        29.6005   23.4352    6.4433 H         1 UNK         0.0748 
     85 H85        29.2543   21.8621    5.7813 H         1 UNK         0.0748 
     86 H86        28.2014   25.3691    6.3836 H         1 UNK         0.0940 
     87 H87        26.6382   25.5260    5.6354 H         1 UNK         0.0940 
     88 H88        29.3485   25.9980    4.3182 H         1 UNK         0.0703 
     89 H89        28.4794   25.5559    2.3527 H         1 UNK         0.3081 
     90 H90        25.9630   24.9482    0.8336 H         1 UNK         0.0719 
     91 H91        25.7405   27.9939    0.5491 H         1 UNK         0.0809 
     92 H92        25.3024   26.8291   -0.6999 H         1 UNK         0.0809 
     93 H93        24.4171   26.8700    0.8153 H         1 UNK         0.0809 
     94 H94        27.9360   25.0389   -0.1211 H         1 UNK         0.2990 
     95 H95        30.2737   27.5542   -0.9391 H         1 UNK         0.0690 
     96 H96        31.9176   25.9889    0.0894 H         1 UNK         0.0788 
     97 H97        30.6334   25.2123    1.0130 H         1 UNK         0.0788 
     98 H98        31.0691   26.8841    1.3383 H         1 UNK         0.0788 
     99 H99        30.1360   24.6960   -1.3420 H         1 UNK         0.2993 
    100 H100       28.3254   24.7302   -4.3243 H         1 UNK         0.0949 
    101 H101       30.3996   24.1082   -5.5603 H         1 UNK         0.0767 
    102 H102       30.3201   25.8450   -5.3170 H         1 UNK         0.0767 
    103 H103       31.3921   24.8731   -4.3180 H         1 UNK         0.0767 
    104 H104       30.3618   23.0400   -3.0366 H         1 UNK         0.3013 
    105 H105       28.2998   28.2743    2.7817 H         1 UNK         0.3121 
    106 H106       27.0544   30.0957    4.6809 H         1 UNK         0.0774 
    107 H107       26.9140   31.5717    2.6932 H         1 UNK         0.0815 
    108 H108       27.9759   30.5065    1.7817 H         1 UNK         0.0815 
    109 H109       26.3753   29.9563    2.2687 H         1 UNK         0.0815 
    110 H110       27.8592   32.0474    5.4125 H         1 UNK         0.2987 
    111 H111       30.6580   32.4168    5.8504 H         1 UNK         0.0949 
    112 H112       28.3261   34.4010    6.0857 H         1 UNK         0.0806 
    113 H113       28.9289   33.3508    7.3692 H         1 UNK         0.0806 
    114 H114       29.9402   34.6400    6.7407 H         1 UNK         0.0806 
    115 H115       28.4763   33.4955    3.3012 H         1 UNK         0.3010 
    116 H116       30.1689   35.3798    1.9933 H         1 UNK         0.0829 
    117 H117       27.7278   35.2029    1.5449 H         1 UNK         0.0813 
    118 H118       28.6333   34.9817    0.0582 H         1 UNK         0.0813 
    119 H119       27.9425   33.5854    0.8725 H         1 UNK         0.0813 
    120 H120       30.2495   31.8708    2.0834 H         1 UNK         0.3038 
    121 H121       32.2330   31.6974   -0.1263 H         1 UNK         0.0769 
    122 H122       30.8057   29.5026    1.4716 H         1 UNK         0.0811 
    123 H123       31.8640   29.2646    0.0899 H         1 UNK         0.0811 
    124 H124       30.3190   30.0705   -0.1233 H         1 UNK         0.0811 
    125 H125       32.3461   32.6282    2.9849 H         1 UNK         0.3204 
    126 H126       33.7408   32.6741    4.6693 H         1 UNK         0.0748 
    127 H127       36.1618   32.4797    4.2725 H         1 UNK         0.0771 
    128 H128       35.8953   31.6278    2.7594 H         1 UNK         0.0771 
    129 H129       35.4161   33.3169    2.9223 H         1 UNK         0.0771 
    130 H130       32.0471   30.4254    4.5955 H         1 UNK         0.2980 
    131 H131       33.5884   28.6082    6.2956 H         1 UNK         0.0545 
    132 H132       31.5986   26.7769    6.9769 H         1 UNK         0.3459 
    133 H133       30.3659   27.6659    7.8419 H         1 UNK         0.3459 
    134 H134       31.6547   27.2114    4.4324 H         1 UNK         0.0616 
    135 H135       33.1029   27.8132    3.6830 H         1 UNK         0.0616 
    136 H136       33.7682   25.6301    2.9010 H         1 UNK         0.0634 
    137 H137       34.5438   24.3978    3.8630 H         1 UNK         0.0634 
@<TRIPOS>BOND
     1    1    2 1    
     2    1   72 1    
     3    1   73 1    
     4    1   74 1    
     5    2    3 2    
     6    2    4 am   BACKBONE|DICT|INTERRES
     7    4    5 1    
     8    4   75 1    
     9    5    6 1    
    10    5   35 1    
    11    5   76 1    
    12    6    7 1    
    13    6   77 1    
    14    6   78 1    
    15    7    8 1    
    16    8    9 1    
    17    8   79 1    
    18    8   80 1    
    19    9   10 ar   
    20    9   14 ar   
    21   10   11 ar   
    22   10   81 1    
    23   11   12 ar   
    24   11   71 1    
    25   12   13 ar   
    26   12   82 1    
    27   13   14 ar   
    28   13   15 1    
    29   14   83 1    
    30   15   16 1    
    31   15   84 1    
    32   15   85 1    
    33   16   17 1    
    34   17   18 1    
    35   17   86 1    
    36   17   87 1    
    37   18   19 1    
    38   18   37 1    
    39   18   88 1    
    40   19   20 am   BACKBONE|DICT|INTERRES
    41   19   89 1    
    42   20   21 2    
    43   20   22 1    
    44   22   23 1    
    45   22   24 1    
    46   22   90 1    
    47   23   91 1    
    48   23   92 1    
    49   23   93 1    
    50   24   25 am   BACKBONE|DICT|INTERRES
    51   24   94 1    
    52   25   26 2    
    53   25   27 1    
    54   27   28 1    
    55   27   29 1    
    56   27   95 1    
    57   28   96 1    
    58   28   97 1    
    59   28   98 1    
    60   29   30 am   BACKBONE|DICT|INTERRES
    61   29   99 1    
    62   30   31 2    
    63   30   32 1    
    64   32   33 1    
    65   32   34 1    
    66   32  100 1    
    67   33  101 1    
    68   33  102 1    
    69   33  103 1    
    70   34   35 am   BACKBONE|DICT|INTERRES
    71   34  104 1    
    72   35   36 2    
    73   37   38 2    
    74   37   39 am   BACKBONE|DICT|INTERRES
    75   39   40 1    
    76   39  105 1    
    77   40   41 1    
    78   40   42 1    
    79   40  106 1    
    80   41  107 1    
    81   41  108 1    
    82   41  109 1    
    83   42   43 2    
    84   42   44 am   BACKBONE|DICT|INTERRES
    85   44   45 1    
    86   44  110 1    
    87   45   46 1    
    88   45   47 1    
    89   45  111 1    
    90   46  112 1    
    91   46  113 1    
    92   46  114 1    
    93   47   48 2    
    94   47   49 am   BACKBONE|DICT|INTERRES
    95   49   50 1    
    96   49  115 1    
    97   50   51 1    
    98   50   52 1    
    99   50  116 1    
   100   51  117 1    
   101   51  118 1    
   102   51  119 1    
   103   52   53 2    
   104   52   54 am   BACKBONE|DICT|INTERRES
   105   54   55 1    
   106   54  120 1    
   107   55   56 1    
   108   55   57 1    
   109   55  121 1    
   110   56  122 1    
   111   56  123 1    
   112   56  124 1    
   113   57   58 2    
   114   57   59 am   BACKBONE|DICT|INTERRES
   115   59   60 1    
   116   59  125 1    
   117   60   61 1    
   118   60   62 1    
   119   60  126 1    
   120   61  127 1    
   121   61  128 1    
   122   61  129 1    
   123   62   63 2    
   124   62   64 am   BACKBONE|DICT|INTERRES
   125   64   65 1    
   126   64  130 1    
   127   65   66 1    
   128   65   69 1    
   129   65  131 1    
   130   66   67 am   BACKBONE|DICT|INTERRES
   131   66   68 2    
   132   67  132 1    
   133   67  133 1    
   134   69   70 1    
   135   69  134 1    
   136   69  135 1    
   137   70   71 1    
   138   71  136 1    
   139   71  137 1    
@<TRIPOS>SUBSTRUCTURE
     1 UNK         1 GROUP             0       ****    0 ROOT    
