@<TRIPOS>MOLECULE
3R136
137   139    1
SMALL
USER_CHARGES


@<TRIPOS>ATOM
      1 CA         29.5269   20.4733   -1.3814 C.3       0 UNK        -0.1979 
      2 C          28.9682   21.6207   -0.5554 C.2       0 UNK         0.4864 
      3 O          28.6478   22.6717   -1.1126 O.2       0 UNK        -0.5359 
      4 N          28.8345   21.4225    0.7649 N.am      1 UNK        -0.4318 
      5 CA         28.3724   22.4065    1.7564 C.3       1 UNK         0.0824 
      6 C6         28.3210   21.7975    3.1787 C.3       12 UNK        -0.0944 
      7 S7         29.9250   21.2947    3.9146 S.3       12 UNK        -0.2672 
      8 C8         31.2150   22.3721    3.1748 C.3       12 UNK         0.0333 
      9 C9         31.1280   23.8728    3.4790 C.ar      12 UNK        -0.0807 
     10 C10        32.0833   24.7225    2.9113 C.ar      12 UNK        -0.0894 
     11 C11        32.0383   26.1072    3.1211 C.ar      12 UNK        -0.0804 
     12 C12        30.9984   26.6477    3.8840 C.ar      12 UNK        -0.0824 
     13 C13        30.0249   25.8176    4.4446 C.ar      12 UNK        -0.0762 
     14 C14        30.1228   24.4348    4.2739 C.ar      12 UNK        -0.0782 
     15 C15        28.8539   26.3958    5.2287 C.3       12 UNK         0.0230 
     16 S16        27.2514   25.8881    4.5103 S.3       12 UNK        -0.2608 
     17 C17        26.7454   27.2657    3.4202 C.3       12 UNK        -0.0989 
     18 CA         27.8286   27.8478    2.4753 C.3       5 UNK         0.0716 
     19 N          28.2767   26.9073    1.4346 N.am      5 UNK        -0.4135 
     20 C          29.3313   27.1395    0.6332 C.2       4 UNK         0.5031 
     21 O          30.0575   28.1281    0.7503 O.2       4 UNK        -0.5229 
     22 CA         29.5955   26.1846   -0.5456 C.3       4 UNK         0.0329 
     23 CB         30.7117   25.1826   -0.2232 C.3       4 UNK        -0.2001 
     24 N          28.4244   25.4701   -1.0608 N.am      4 UNK        -0.4303 
     25 C          27.3546   26.0549   -1.6195 C.2       3 UNK         0.5044 
     26 O          27.1588   27.2691   -1.6053 O.2       3 UNK        -0.5152 
     27 CA         26.3388   25.1375   -2.3154 C.3       3 UNK         0.0319 
     28 CB         26.9021   24.6151   -3.6475 C.3       3 UNK        -0.2001 
     29 N          25.9955   24.0084   -1.4558 N.am      3 UNK        -0.4354 
     30 C          24.8882   23.9360   -0.7042 C.2       2 UNK         0.4964 
     31 O          23.9593   24.7423   -0.7667 O.2       2 UNK        -0.5047 
     32 CA         24.8037   22.7809    0.3135 C.3       2 UNK         0.0288 
     33 CB         24.0270   21.5952   -0.2819 C.3       2 UNK        -0.2113 
     34 N          26.1048   22.3085    0.8000 N.am      2 UNK        -0.4145 
     35 C          27.0260   23.0723    1.4078 C.2       1 UNK         0.5006 
     36 O          26.8740   24.2720    1.6407 O.2       1 UNK        -0.5103 
     37 C          27.3702   29.2178    1.9195 C.2       5 UNK         0.5055 
     38 O          27.3228   30.1745    2.6952 O.2       5 UNK        -0.5220 
     39 N          27.1036   29.3346    0.6059 N.am      6 UNK        -0.4450 
     40 CA         26.8323   30.6060   -0.0804 C.3       6 UNK         0.0367 
     41 CB         26.4133   30.3349   -1.5336 C.3       6 UNK        -0.1929 
     42 C          28.0032   31.6108   -0.0382 C.2       6 UNK         0.5070 
     43 O          27.7804   32.7940   -0.2953 O.2       6 UNK        -0.5237 
     44 N          29.2129   31.1489    0.3195 N.am      7 UNK        -0.4739 
     45 CA         30.3668   31.9910    0.6501 C.3       7 UNK         0.0276 
     46 CB         31.6058   31.0968    0.8274 C.3       7 UNK        -0.1927 
     47 C          30.1567   32.8591    1.9085 C.2       7 UNK         0.5013 
     48 O          30.8418   33.8727    2.0479 O.2       7 UNK        -0.5193 
     49 N          29.2278   32.4503    2.7913 N.am      8 UNK        -0.4253 
     50 CA         28.8175   33.1156    4.0358 C.3       8 UNK         0.0242 
     51 CB         28.1118   34.4539    3.7289 C.3       8 UNK        -0.2000 
     52 C          29.9488   33.2629    5.0744 C.2       8 UNK         0.4948 
     53 O          29.9101   34.1795    5.8979 O.2       8 UNK        -0.5275 
     54 N          30.9272   32.3531    5.0309 N.am      9 UNK        -0.4246 
     55 CA         32.0942   32.2943    5.9021 C.3       9 UNK         0.0261 
     56 CB         33.1287   33.3532    5.4721 C.3       9 UNK        -0.1959 
     57 C          32.6862   30.8846    5.8097 C.2       9 UNK         0.5033 
     58 O          32.3832   30.1539    4.8605 O.2       9 UNK        -0.5390 
     59 N          33.5331   30.5357    6.7851 N.am      10 UNK        -0.4215 
     60 CA         34.3064   29.2959    6.7956 C.3       10 UNK         0.0240 
     61 CB         34.8373   29.0313    8.2150 C.3       10 UNK        -0.1982 
     62 C          35.4542   29.3881    5.7784 C.2       10 UNK         0.4970 
     63 O          36.3509   30.2170    5.9466 O.2       10 UNK        -0.4916 
     64 N          35.3910   28.5467    4.7441 N.am      11 UNK        -0.4279 
     65 CA         36.3861   28.4431    3.6658 C.3       11 UNK         0.1003 
     66 C          37.6744   27.6509    4.0388 C.2       11 UNK         0.5709 
     67 N          37.7472   26.9974    5.1928 N.am      11 UNK        -0.7358 
     68 O          38.6348   27.6450    3.2721 O.2       11 UNK        -0.4999 
     69 C69        35.7358   27.9332    2.3501 C.3       12 UNK        -0.0954 
     70 S70        34.7742   26.3956    2.5700 S.3       12 UNK        -0.2268 
     71 C71        33.0695   27.0431    2.4963 C.3       12 UNK         0.0203 
     72 H72        29.7621   19.6042   -0.7675 H         1 UNK         0.0888 
     73 H73        28.8037   20.1704   -2.1380 H         1 UNK         0.0888 
     74 H74        30.4385   20.7885   -1.8881 H         1 UNK         0.0888 
     75 H75        29.1140   20.5318    1.1517 H         1 UNK         0.3017 
     76 H76        29.0892   23.2234    1.7556 H         1 UNK         0.0873 
     77 H77        27.8505   22.4945    3.8745 H         1 UNK         0.0745 
     78 H78        27.6719   20.9197    3.1809 H         1 UNK         0.0745 
     79 H79        32.1800   22.0145    3.5366 H         1 UNK         0.0705 
     80 H80        31.2306   22.2218    2.0947 H         1 UNK         0.0705 
     81 H81        32.8637   24.3016    2.2923 H         1 UNK         0.1334 
     82 H82        30.9395   27.7189    4.0256 H         1 UNK         0.1417 
     83 H83        29.3799   23.8128    4.7466 H         1 UNK         0.1562 
     84 H84        28.9094   27.4827    5.3026 H         1 UNK         0.0748 
     85 H85        28.9074   26.0208    6.2516 H         1 UNK         0.0748 
     86 H86        26.3605   28.0433    4.0838 H         1 UNK         0.0940 
     87 H87        25.8874   26.9285    2.8353 H         1 UNK         0.0940 
     88 H88        28.7056   28.0848    3.0757 H         1 UNK         0.0703 
     89 H89        27.7378   26.0524    1.3275 H         1 UNK         0.3081 
     90 H90        29.9548   26.8098   -1.3658 H         1 UNK         0.0719 
     91 H91        31.6289   25.6987    0.0595 H         1 UNK         0.0809 
     92 H92        30.4381   24.5280    0.6001 H         1 UNK         0.0809 
     93 H93        30.9473   24.5572   -1.0844 H         1 UNK         0.0809 
     94 H94        28.5030   24.4551   -1.1060 H         1 UNK         0.2990 
     95 H95        25.4500   25.7316   -2.5388 H         1 UNK         0.0690 
     96 H96        27.1799   25.4409   -4.3040 H         1 UNK         0.0788 
     97 H97        26.1637   24.0138   -4.1780 H         1 UNK         0.0788 
     98 H98        27.7907   23.9993   -3.5019 H         1 UNK         0.0788 
     99 H99        26.7254   23.3180   -1.3140 H         1 UNK         0.2993 
    100 H100       24.2515   23.1565    1.1777 H         1 UNK         0.0949 
    101 H101       23.8705   20.8101    0.4583 H         1 UNK         0.0767 
    102 H102       23.0421   21.9093   -0.6307 H         1 UNK         0.0767 
    103 H103       24.5500   21.1572   -1.1332 H         1 UNK         0.0767 
    104 H104       26.3274   21.3382    0.6316 H         1 UNK         0.3013 
    105 H105       27.1704   28.5138    0.0105 H         1 UNK         0.3121 
    106 H106       25.9907   31.0771    0.4316 H         1 UNK         0.0774 
    107 H107       26.1197   31.2587   -2.0341 H         1 UNK         0.0815 
    108 H108       27.2285   29.8983   -2.1117 H         1 UNK         0.0815 
    109 H109       25.5624   29.6554   -1.5840 H         1 UNK         0.0815 
    110 H110       29.3263   30.1528    0.4752 H         1 UNK         0.2987 
    111 H111       30.5422   32.6672   -0.1893 H         1 UNK         0.0949 
    112 H112       32.4948   31.6952    1.0311 H         1 UNK         0.0806 
    113 H113       31.4858   30.3996    1.6583 H         1 UNK         0.0806 
    114 H114       31.8069   30.5125   -0.0707 H         1 UNK         0.0806 
    115 H115       28.7112   31.6015    2.5779 H         1 UNK         0.3010 
    116 H116       28.0795   32.4554    4.4941 H         1 UNK         0.0829 
    117 H117       28.8053   35.1933    3.3272 H         1 UNK         0.0813 
    118 H118       27.3073   34.3205    3.0054 H         1 UNK         0.0813 
    119 H119       27.6682   34.8799    4.6296 H         1 UNK         0.0813 
    120 H120       30.8827   31.5960    4.3591 H         1 UNK         0.3038 
    121 H121       31.7808   32.4746    6.9326 H         1 UNK         0.0769 
    122 H122       33.4442   33.2065    4.4382 H         1 UNK         0.0811 
    123 H123       34.0223   33.3123    6.0960 H         1 UNK         0.0811 
    124 H124       32.7253   34.3625    5.5560 H         1 UNK         0.0811 
    125 H125       33.7520   31.2092    7.5053 H         1 UNK         0.3204 
    126 H126       33.6454   28.4694    6.5234 H         1 UNK         0.0748 
    127 H127       35.4118   28.1046    8.2494 H         1 UNK         0.0771 
    128 H128       35.4914   29.8328    8.5615 H         1 UNK         0.0771 
    129 H129       34.0212   28.9320    8.9310 H         1 UNK         0.0771 
    130 H130       34.6195   27.8991    4.6793 H         1 UNK         0.2980 
    131 H131       36.7379   29.4557    3.4590 H         1 UNK         0.0545 
    132 H132       38.5903   26.4954    5.4226 H         1 UNK         0.3459 
    133 H133       36.9666   26.9923    5.8283 H         1 UNK         0.3459 
    134 H134       36.4891   27.7649    1.5783 H         1 UNK         0.0616 
    135 H135       35.0820   28.7075    1.9458 H         1 UNK         0.0616 
    136 H136       33.0388   28.0102    3.0012 H         1 UNK         0.0634 
    137 H137       32.8024   27.2328    1.4565 H         1 UNK         0.0634 
@<TRIPOS>BOND
     1    1    2 1    
     2    1   72 1    
     3    1   73 1    
     4    1   74 1    
     5    2    3 2    
     6    2    4 am   BACKBONE|DICT|INTERRES
     7    4    5 1    
     8    4   75 1    
     9    5    6 1    
    10    5   35 1    
    11    5   76 1    
    12    6    7 1    
    13    6   77 1    
    14    6   78 1    
    15    7    8 1    
    16    8    9 1    
    17    8   79 1    
    18    8   80 1    
    19    9   10 ar   
    20    9   14 ar   
    21   10   11 ar   
    22   10   81 1    
    23   11   12 ar   
    24   11   71 1    
    25   12   13 ar   
    26   12   82 1    
    27   13   14 ar   
    28   13   15 1    
    29   14   83 1    
    30   15   16 1    
    31   15   84 1    
    32   15   85 1    
    33   16   17 1    
    34   17   18 1    
    35   17   86 1    
    36   17   87 1    
    37   18   19 1    
    38   18   37 1    
    39   18   88 1    
    40   19   20 am   BACKBONE|DICT|INTERRES
    41   19   89 1    
    42   20   21 2    
    43   20   22 1    
    44   22   23 1    
    45   22   24 1    
    46   22   90 1    
    47   23   91 1    
    48   23   92 1    
    49   23   93 1    
    50   24   25 am   BACKBONE|DICT|INTERRES
    51   24   94 1    
    52   25   26 2    
    53   25   27 1    
    54   27   28 1    
    55   27   29 1    
    56   27   95 1    
    57   28   96 1    
    58   28   97 1    
    59   28   98 1    
    60   29   30 am   BACKBONE|DICT|INTERRES
    61   29   99 1    
    62   30   31 2    
    63   30   32 1    
    64   32   33 1    
    65   32   34 1    
    66   32  100 1    
    67   33  101 1    
    68   33  102 1    
    69   33  103 1    
    70   34   35 am   BACKBONE|DICT|INTERRES
    71   34  104 1    
    72   35   36 2    
    73   37   38 2    
    74   37   39 am   BACKBONE|DICT|INTERRES
    75   39   40 1    
    76   39  105 1    
    77   40   41 1    
    78   40   42 1    
    79   40  106 1    
    80   41  107 1    
    81   41  108 1    
    82   41  109 1    
    83   42   43 2    
    84   42   44 am   BACKBONE|DICT|INTERRES
    85   44   45 1    
    86   44  110 1    
    87   45   46 1    
    88   45   47 1    
    89   45  111 1    
    90   46  112 1    
    91   46  113 1    
    92   46  114 1    
    93   47   48 2    
    94   47   49 am   BACKBONE|DICT|INTERRES
    95   49   50 1    
    96   49  115 1    
    97   50   51 1    
    98   50   52 1    
    99   50  116 1    
   100   51  117 1    
   101   51  118 1    
   102   51  119 1    
   103   52   53 2    
   104   52   54 am   BACKBONE|DICT|INTERRES
   105   54   55 1    
   106   54  120 1    
   107   55   56 1    
   108   55   57 1    
   109   55  121 1    
   110   56  122 1    
   111   56  123 1    
   112   56  124 1    
   113   57   58 2    
   114   57   59 am   BACKBONE|DICT|INTERRES
   115   59   60 1    
   116   59  125 1    
   117   60   61 1    
   118   60   62 1    
   119   60  126 1    
   120   61  127 1    
   121   61  128 1    
   122   61  129 1    
   123   62   63 2    
   124   62   64 am   BACKBONE|DICT|INTERRES
   125   64   65 1    
   126   64  130 1    
   127   65   66 1    
   128   65   69 1    
   129   65  131 1    
   130   66   67 am   BACKBONE|DICT|INTERRES
   131   66   68 2    
   132   67  132 1    
   133   67  133 1    
   134   69   70 1    
   135   69  134 1    
   136   69  135 1    
   137   70   71 1    
   138   71  136 1    
   139   71  137 1    
@<TRIPOS>SUBSTRUCTURE
     1 UNK         1 GROUP             0       ****    0 ROOT    
