@<TRIPOS>MOLECULE
3R136
137   139    1
SMALL
USER_CHARGES


@<TRIPOS>ATOM
      1 CA         32.5041   20.4674   -0.9736 C.3       0 UNK        -0.1979 
      2 C          31.9459   21.6614   -1.7339 C.2       0 UNK         0.4864 
      3 O          32.6902   22.3351   -2.4477 O.2       0 UNK        -0.5359 
      4 N          30.6447   21.9265   -1.5857 N.am      1 UNK        -0.4318 
      5 CA         29.9155   23.0136   -2.2347 C.3       1 UNK         0.0824 
      6 C6         30.1909   24.3990   -1.5822 C.3       12 UNK        -0.0944 
      7 S7         29.5646   24.5944    0.1240 S.3       12 UNK        -0.2672 
      8 C8         31.0374   24.1661    1.1062 C.3       12 UNK         0.0333 
      9 C9         30.8246   24.3425    2.6065 C.ar      12 UNK        -0.0807 
     10 C10        31.8083   24.9688    3.3773 C.ar      12 UNK        -0.0894 
     11 C11        31.6553   25.1061    4.7607 C.ar      12 UNK        -0.0804 
     12 C12        30.4956   24.6208    5.3738 C.ar      12 UNK        -0.0824 
     13 C13        29.4962   24.0055    4.6148 C.ar      12 UNK        -0.0762 
     14 C14        29.6753   23.8520    3.2365 C.ar      12 UNK        -0.0782 
     15 C15        28.2236   23.5038    5.2816 C.3       12 UNK         0.0230 
     16 S16        26.7462   24.3809    4.6764 S.3       12 UNK        -0.2608 
     17 C17        27.0074   26.0775    5.3079 C.3       12 UNK        -0.0989 
     18 CA         27.6983   27.0237    4.2899 C.3       5 UNK         0.0716 
     19 N          27.0733   26.9748    2.9698 N.am      5 UNK        -0.4135 
     20 C          27.5998   27.4855    1.8525 C.2       4 UNK         0.5031 
     21 O          28.6841   28.0675    1.8209 O.2       4 UNK        -0.5229 
     22 CA         26.7843   27.2881    0.5597 C.3       4 UNK         0.0329 
     23 CB         27.5177   27.8038   -0.6931 C.3       4 UNK        -0.2001 
     24 N          26.4409   25.8790    0.3563 N.am      4 UNK        -0.4303 
     25 C          25.4166   25.2327    0.9281 C.2       3 UNK         0.5044 
     26 O          24.6348   25.7756    1.7113 O.2       3 UNK        -0.5152 
     27 CA         25.2635   23.7315    0.6023 C.3       3 UNK         0.0319 
     28 CB         23.8138   23.2327    0.7782 C.3       3 UNK        -0.2001 
     29 N          25.7876   23.3457   -0.7159 N.am      3 UNK        -0.4354 
     30 C          25.4063   23.7987   -1.9201 C.2       2 UNK         0.4964 
     31 O          24.5212   24.6394   -2.0871 O.2       2 UNK        -0.5047 
     32 CA         26.1656   23.2269   -3.1378 C.3       2 UNK         0.0288 
     33 CB         25.7038   23.8474   -4.4706 C.3       2 UNK        -0.2113 
     34 N          27.6193   23.3933   -3.0199 N.am      2 UNK        -0.4145 
     35 C          28.4231   22.6373   -2.2601 C.2       1 UNK         0.5006 
     36 O          28.0145   21.6965   -1.5697 O.2       1 UNK        -0.5103 
     37 C          27.7100   28.4752    4.8064 C.2       5 UNK         0.5055 
     38 O          26.6622   29.1262    4.7903 O.2       5 UNK        -0.5220 
     39 N          28.8822   28.9443    5.2524 N.am      6 UNK        -0.4450 
     40 CA         29.1691   30.2977    5.7437 C.3       6 UNK         0.0367 
     41 CB         28.2975   30.6664    6.9635 C.3       6 UNK        -0.1929 
     42 C          29.1599   31.3851    4.6481 C.2       6 UNK         0.5070 
     43 O          29.0969   32.5716    4.9779 O.2       6 UNK        -0.5237 
     44 N          29.2415   30.9935    3.3683 N.am      7 UNK        -0.4739 
     45 CA         29.2867   31.9066    2.2259 C.3       7 UNK         0.0276 
     46 CB         28.7232   31.2019    0.9798 C.3       7 UNK        -0.1927 
     47 C          30.7146   32.4326    2.0027 C.2       7 UNK         0.5013 
     48 O          31.4278   31.9283    1.1313 O.2       7 UNK        -0.5193 
     49 N          31.0999   33.4393    2.8008 N.am      8 UNK        -0.4253 
     50 CA         32.3548   34.2000    2.7378 C.3       8 UNK         0.0242 
     51 CB         32.3651   35.1197    1.4956 C.3       8 UNK        -0.2000 
     52 C          33.5929   33.2914    2.8416 C.2       8 UNK         0.4948 
     53 O          33.9386   32.8764    3.9475 O.2       8 UNK        -0.5275 
     54 N          34.2191   32.9722    1.7000 N.am      9 UNK        -0.4246 
     55 CA         35.3459   32.0415    1.5900 C.3       9 UNK         0.0261 
     56 CB         35.8628   32.0345    0.1427 C.3       9 UNK        -0.1959 
     57 C          35.0088   30.6112    2.0504 C.2       9 UNK         0.5033 
     58 O          35.8898   29.9251    2.5719 O.2       9 UNK        -0.5390 
     59 N          33.7437   30.1946    1.8978 N.am      10 UNK        -0.4215 
     60 CA         33.2203   28.9321    2.4170 C.3       10 UNK         0.0240 
     61 CB         32.0345   28.4803    1.5446 C.3       10 UNK        -0.1982 
     62 C          32.8443   29.0838    3.9020 C.2       10 UNK         0.4970 
     63 O          31.6605   29.0493    4.2314 O.2       10 UNK        -0.4916 
     64 N          33.8675   29.2584    4.7517 N.am      11 UNK        -0.4279 
     65 CA         33.8217   29.3705    6.2240 C.3       11 UNK         0.1003 
     66 C          32.8933   30.4765    6.8137 C.2       11 UNK         0.5709 
     67 N          32.6725   31.5881    6.1256 N.am      11 UNK        -0.7358 
     68 O          32.3874   30.3525    7.9269 O.2       11 UNK        -0.4999 
     69 C69        33.7246   27.9930    6.9506 C.3       12 UNK        -0.0954 
     70 S70        32.1733   27.0656    6.6837 S.3       12 UNK        -0.2268 
     71 C71        32.7685   25.7420    5.5835 C.3       12 UNK         0.0203 
     72 H72        32.9211   19.7403   -1.6698 H         1 UNK         0.0888 
     73 H73        33.2977   20.7898   -0.3001 H         1 UNK         0.0888 
     74 H74        31.7380   19.9686   -0.3800 H         1 UNK         0.0888 
     75 H75        30.0475   21.3224   -1.0333 H         1 UNK         0.3017 
     76 H76        30.2413   23.0530   -3.2766 H         1 UNK         0.0873 
     77 H77        31.2606   24.6128   -1.5978 H         1 UNK         0.0745 
     78 H78        29.7393   25.1873   -2.1863 H         1 UNK         0.0745 
     79 H79        31.3117   23.1290    0.9140 H         1 UNK         0.0705 
     80 H80        31.8717   24.7813    0.7658 H         1 UNK         0.0705 
     81 H81        32.7065   25.3357    2.8998 H         1 UNK         0.1334 
     82 H82        30.3730   24.7259    6.4432 H         1 UNK         0.1417 
     83 H83        28.9081   23.3632    2.6518 H         1 UNK         0.1562 
     84 H84        28.2808   23.5996    6.3670 H         1 UNK         0.0748 
     85 H85        28.1107   22.4390    5.0734 H         1 UNK         0.0748 
     86 H86        27.5831   26.0325    6.2343 H         1 UNK         0.0940 
     87 H87        26.0263   26.4694    5.5845 H         1 UNK         0.0940 
     88 H88        28.7320   26.6940    4.1657 H         1 UNK         0.0703 
     89 H89        26.1695   26.5207    2.9107 H         1 UNK         0.3081 
     90 H90        25.8641   27.8662    0.6667 H         1 UNK         0.0719 
     91 H91        28.4773   27.3052   -0.8340 H         1 UNK         0.0809 
     92 H92        26.9227   27.6502   -1.5935 H         1 UNK         0.0809 
     93 H93        27.7158   28.8730   -0.6163 H         1 UNK         0.0809 
     94 H94        27.0822   25.3432   -0.2110 H         1 UNK         0.2990 
     95 H95        25.8808   23.2086    1.3345 H         1 UNK         0.0690 
     96 H96        23.7329   22.1660    0.5691 H         1 UNK         0.0788 
     97 H97        23.1230   23.7581    0.1180 H         1 UNK         0.0788 
     98 H98        23.4670   23.3869    1.8008 H         1 UNK         0.0788 
     99 H99        26.5401   22.6620   -0.7092 H         1 UNK         0.2993 
    100 H100       25.9383   22.1590   -3.1765 H         1 UNK         0.0949 
    101 H101       24.6335   23.6991   -4.6217 H         1 UNK         0.0767 
    102 H102       25.8928   24.9212   -4.5038 H         1 UNK         0.0767 
    103 H103       26.2133   23.3900   -5.3190 H         1 UNK         0.0767 
    104 H104       28.0210   24.1642   -3.5341 H         1 UNK         0.3013 
    105 H105       29.7101   28.3686    5.1401 H         1 UNK         0.3121 
    106 H106       30.1954   30.2534    6.0993 H         1 UNK         0.0774 
    107 H107       27.2571   30.8360    6.6861 H         1 UNK         0.0815 
    108 H108       28.6576   31.5818    7.4344 H         1 UNK         0.0815 
    109 H109       28.3234   29.8838    7.7215 H         1 UNK         0.0815 
    110 H110       29.3458   30.0059    3.1672 H         1 UNK         0.2987 
    111 H111       28.6408   32.7642    2.4276 H         1 UNK         0.0949 
    112 H112       28.6881   31.8851    0.1305 H         1 UNK         0.0806 
    113 H113       29.3335   30.3496    0.6817 H         1 UNK         0.0806 
    114 H114       27.7084   30.8429    1.1517 H         1 UNK         0.0806 
    115 H115       30.4675   33.6952    3.5503 H         1 UNK         0.3010 
    116 H116       32.3742   34.8412    3.6205 H         1 UNK         0.0829 
    117 H117       32.2474   34.5659    0.5635 H         1 UNK         0.0813 
    118 H118       31.5546   35.8470    1.5453 H         1 UNK         0.0813 
    119 H119       33.2958   35.6853    1.4316 H         1 UNK         0.0813 
    120 H120       33.8373   33.3298    0.8361 H         1 UNK         0.3038 
    121 H121       36.1430   32.4126    2.2377 H         1 UNK         0.0769 
    122 H122       36.7188   31.3663    0.0380 H         1 UNK         0.0811 
    123 H123       35.0980   31.6965   -0.5579 H         1 UNK         0.0811 
    124 H124       36.1895   33.0271   -0.1679 H         1 UNK         0.0811 
    125 H125       33.0576   30.8414    1.5158 H         1 UNK         0.3204 
    126 H126       33.9895   28.1599    2.3480 H         1 UNK         0.0748 
    127 H127       31.6127   27.5417    1.9063 H         1 UNK         0.0771 
    128 H128       32.3367   28.3234    0.5094 H         1 UNK         0.0771 
    129 H129       31.2290   29.2140    1.5502 H         1 UNK         0.0771 
    130 H130       34.7897   29.3399    4.3405 H         1 UNK         0.2980 
    131 H131       34.8139   29.7467    6.4746 H         1 UNK         0.0545 
    132 H132       32.0848   32.2972    6.5310 H         1 UNK         0.3459 
    133 H133       33.1479   31.7787    5.2481 H         1 UNK         0.3459 
    134 H134       34.5700   27.3705    6.6549 H         1 UNK         0.0616 
    135 H135       33.8449   28.1287    8.0267 H         1 UNK         0.0616 
    136 H136       33.5313   26.1521    4.9200 H         1 UNK         0.0634 
    137 H137       33.2576   24.9732    6.1829 H         1 UNK         0.0634 
@<TRIPOS>BOND
     1    1    2 1    
     2    1   72 1    
     3    1   73 1    
     4    1   74 1    
     5    2    3 2    
     6    2    4 am   BACKBONE|DICT|INTERRES
     7    4    5 1    
     8    4   75 1    
     9    5    6 1    
    10    5   35 1    
    11    5   76 1    
    12    6    7 1    
    13    6   77 1    
    14    6   78 1    
    15    7    8 1    
    16    8    9 1    
    17    8   79 1    
    18    8   80 1    
    19    9   10 ar   
    20    9   14 ar   
    21   10   11 ar   
    22   10   81 1    
    23   11   12 ar   
    24   11   71 1    
    25   12   13 ar   
    26   12   82 1    
    27   13   14 ar   
    28   13   15 1    
    29   14   83 1    
    30   15   16 1    
    31   15   84 1    
    32   15   85 1    
    33   16   17 1    
    34   17   18 1    
    35   17   86 1    
    36   17   87 1    
    37   18   19 1    
    38   18   37 1    
    39   18   88 1    
    40   19   20 am   BACKBONE|DICT|INTERRES
    41   19   89 1    
    42   20   21 2    
    43   20   22 1    
    44   22   23 1    
    45   22   24 1    
    46   22   90 1    
    47   23   91 1    
    48   23   92 1    
    49   23   93 1    
    50   24   25 am   BACKBONE|DICT|INTERRES
    51   24   94 1    
    52   25   26 2    
    53   25   27 1    
    54   27   28 1    
    55   27   29 1    
    56   27   95 1    
    57   28   96 1    
    58   28   97 1    
    59   28   98 1    
    60   29   30 am   BACKBONE|DICT|INTERRES
    61   29   99 1    
    62   30   31 2    
    63   30   32 1    
    64   32   33 1    
    65   32   34 1    
    66   32  100 1    
    67   33  101 1    
    68   33  102 1    
    69   33  103 1    
    70   34   35 am   BACKBONE|DICT|INTERRES
    71   34  104 1    
    72   35   36 2    
    73   37   38 2    
    74   37   39 am   BACKBONE|DICT|INTERRES
    75   39   40 1    
    76   39  105 1    
    77   40   41 1    
    78   40   42 1    
    79   40  106 1    
    80   41  107 1    
    81   41  108 1    
    82   41  109 1    
    83   42   43 2    
    84   42   44 am   BACKBONE|DICT|INTERRES
    85   44   45 1    
    86   44  110 1    
    87   45   46 1    
    88   45   47 1    
    89   45  111 1    
    90   46  112 1    
    91   46  113 1    
    92   46  114 1    
    93   47   48 2    
    94   47   49 am   BACKBONE|DICT|INTERRES
    95   49   50 1    
    96   49  115 1    
    97   50   51 1    
    98   50   52 1    
    99   50  116 1    
   100   51  117 1    
   101   51  118 1    
   102   51  119 1    
   103   52   53 2    
   104   52   54 am   BACKBONE|DICT|INTERRES
   105   54   55 1    
   106   54  120 1    
   107   55   56 1    
   108   55   57 1    
   109   55  121 1    
   110   56  122 1    
   111   56  123 1    
   112   56  124 1    
   113   57   58 2    
   114   57   59 am   BACKBONE|DICT|INTERRES
   115   59   60 1    
   116   59  125 1    
   117   60   61 1    
   118   60   62 1    
   119   60  126 1    
   120   61  127 1    
   121   61  128 1    
   122   61  129 1    
   123   62   63 2    
   124   62   64 am   BACKBONE|DICT|INTERRES
   125   64   65 1    
   126   64  130 1    
   127   65   66 1    
   128   65   69 1    
   129   65  131 1    
   130   66   67 am   BACKBONE|DICT|INTERRES
   131   66   68 2    
   132   67  132 1    
   133   67  133 1    
   134   69   70 1    
   135   69  134 1    
   136   69  135 1    
   137   70   71 1    
   138   71  136 1    
   139   71  137 1    
@<TRIPOS>SUBSTRUCTURE
     1 UNK         1 GROUP             0       ****    0 ROOT    
