@<TRIPOS>MOLECULE
3R136
137   139    1
SMALL
USER_CHARGES


@<TRIPOS>ATOM
      1 CA         26.0388   25.6686    3.7735 C.3       0 UNK        -0.1979 
      2 C          26.8714   24.8639    2.7885 C.2       0 UNK         0.4864 
      3 O          27.6218   25.4525    2.0073 O.2       0 UNK        -0.5359 
      4 N          26.7499   23.5299    2.8360 N.am      1 UNK        -0.4318 
      5 CA         27.3852   22.5492    1.9477 C.3       1 UNK         0.0824 
      6 C6         28.9389   22.5886    1.9455 C.3       12 UNK        -0.0944 
      7 S7         29.6727   22.1461    3.5522 S.3       12 UNK        -0.2672 
      8 C8         31.3017   21.5194    3.0256 C.3       12 UNK         0.0333 
      9 C9         32.2449   22.6392    2.6000 C.ar      12 UNK        -0.0807 
     10 C10        33.2317   23.0976    3.4785 C.ar      12 UNK        -0.0894 
     11 C11        34.1246   24.0994    3.0852 C.ar      12 UNK        -0.0804 
     12 C12        34.0124   24.6595    1.8088 C.ar      12 UNK        -0.0824 
     13 C13        33.0317   24.2102    0.9198 C.ar      12 UNK        -0.0762 
     14 C14        32.1604   23.1918    1.3171 C.ar      12 UNK        -0.0782 
     15 C15        32.9467   24.7918   -0.4854 C.3       12 UNK         0.0230 
     16 S16        32.4207   26.5349   -0.4918 S.3       12 UNK        -0.2608 
     17 C17        30.6550   26.4044   -0.0594 C.3       12 UNK        -0.0989 
     18 CA         30.1267   27.6689    0.6642 C.3       5 UNK         0.0716 
     19 N          28.6744   27.8069    0.4975 N.am      5 UNK        -0.4135 
     20 C          27.9048   28.7827    0.9985 C.2       4 UNK         0.5031 
     21 O          28.3367   29.6775    1.7259 O.2       4 UNK        -0.5229 
     22 CA         26.3956   28.7280    0.6877 C.3       4 UNK         0.0329 
     23 CB         25.7471   30.1295    0.6786 C.3       4 UNK        -0.2001 
     24 N          26.0582   27.9845   -0.5328 N.am      4 UNK        -0.4303 
     25 C          26.4036   28.2713   -1.7960 C.2       3 UNK         0.5044 
     26 O          27.0948   29.2382   -2.1198 O.2       3 UNK        -0.5152 
     27 CA         25.9175   27.2733   -2.8672 C.3       3 UNK         0.0319 
     28 CB         26.1977   27.7605   -4.3013 C.3       3 UNK        -0.2001 
     29 N          26.5229   25.9495   -2.6916 N.am      3 UNK        -0.4354 
     30 C          26.1924   25.0562   -1.7488 C.2       2 UNK         0.4964 
     31 O          25.2971   25.2505   -0.9235 O.2       2 UNK        -0.5047 
     32 CA         26.9981   23.7457   -1.6989 C.3       2 UNK         0.0288 
     33 CB         28.2582   23.7434   -2.5916 C.3       2 UNK        -0.2113 
     34 N          27.4029   23.4851   -0.3192 N.am      2 UNK        -0.4145 
     35 C          26.7896   22.6455    0.5283 C.2       1 UNK         0.5006 
     36 O          25.8055   21.9552    0.2366 O.2       1 UNK        -0.5103 
     37 C          30.5754   27.7103    2.1408 C.2       5 UNK         0.5055 
     38 O          31.5555   28.3878    2.4592 O.2       5 UNK        -0.5220 
     39 N          29.8125   27.0425    3.0145 N.am      6 UNK        -0.4450 
     40 CA         30.0372   27.0051    4.4591 C.3       6 UNK         0.0367 
     41 CB         30.0638   25.5375    4.9201 C.3       6 UNK        -0.1929 
     42 C          29.0173   27.8496    5.2486 C.2       6 UNK         0.5070 
     43 O          28.8858   27.6377    6.4544 O.2       6 UNK        -0.5237 
     44 N          28.3157   28.7843    4.5875 N.am      7 UNK        -0.4739 
     45 CA         27.3259   29.6708    5.2179 C.3       7 UNK         0.0276 
     46 CB         25.9125   29.2946    4.7440 C.3       7 UNK        -0.1927 
     47 C          27.6030   31.1616    4.9654 C.2       7 UNK         0.5013 
     48 O          27.3893   31.9671    5.8719 O.2       7 UNK        -0.5193 
     49 N          28.0616   31.5101    3.7562 N.am      8 UNK        -0.4253 
     50 CA         28.3822   32.8753    3.3329 C.3       8 UNK         0.0242 
     51 CB         28.5998   32.9235    1.8099 C.3       8 UNK        -0.2000 
     52 C          29.5482   33.5540    4.0871 C.2       8 UNK         0.4948 
     53 O          29.3880   34.7169    4.4552 O.2       8 UNK        -0.5275 
     54 N          30.7016   32.9148    4.3363 N.am      9 UNK        -0.4246 
     55 CA         31.1662   31.6011    3.8960 C.3       9 UNK         0.0261 
     56 CB         31.3207   30.6956    5.1312 C.3       9 UNK        -0.1959 
     57 C          32.5286   31.7661    3.2169 C.2       9 UNK         0.5033 
     58 O          33.3079   32.6352    3.6159 O.2       9 UNK        -0.5390 
     59 N          32.8180   30.8795    2.2591 N.am      10 UNK        -0.4215 
     60 CA         34.1559   30.6769    1.6990 C.3       10 UNK         0.0240 
     61 CB         34.0342   30.0709    0.2930 C.3       10 UNK        -0.1982 
     62 C          34.9993   29.7702    2.6131 C.2       10 UNK         0.4970 
     63 O          36.2192   29.9277    2.6621 O.2       10 UNK        -0.4916 
     64 N          34.3284   28.8659    3.3413 N.am      11 UNK        -0.4279 
     65 CA         34.8947   28.0205    4.4014 C.3       11 UNK         0.1003 
     66 C          35.4098   28.7976    5.6533 C.2       11 UNK         0.5709 
     67 N          35.0457   30.0599    5.8525 N.am      11 UNK        -0.7358 
     68 O          36.1692   28.2533    6.4505 O.2       11 UNK        -0.4999 
     69 C69        33.8787   26.9094    4.7822 C.3       12 UNK        -0.0954 
     70 S70        34.6306   25.4126    5.4988 S.3       12 UNK        -0.2268 
     71 C71        35.2409   24.5442    4.0201 C.3       12 UNK         0.0203 
     72 H72        25.3141   25.0466    4.2983 H         1 UNK         0.0888 
     73 H73        26.6845   26.1346    4.5156 H         1 UNK         0.0888 
     74 H74        25.4927   26.4523    3.2504 H         1 UNK         0.0888 
     75 H75        26.1094   23.1284    3.5067 H         1 UNK         0.3017 
     76 H76        27.0908   21.5688    2.3271 H         1 UNK         0.0873 
     77 H77        29.3184   23.5714    1.6661 H         1 UNK         0.0745 
     78 H78        29.3165   21.8867    1.1993 H         1 UNK         0.0745 
     79 H79        31.7382   20.9600    3.8544 H         1 UNK         0.0705 
     80 H80        31.1804   20.8010    2.2134 H         1 UNK         0.0705 
     81 H81        33.3170   22.6662    4.4667 H         1 UNK         0.1334 
     82 H82        34.6975   25.4363    1.4970 H         1 UNK         0.1417 
     83 H83        31.4207   22.8229    0.6214 H         1 UNK         0.1562 
     84 H84        32.2691   24.2105   -1.1130 H         1 UNK         0.0748 
     85 H85        33.9290   24.7229   -0.9549 H         1 UNK         0.0748 
     86 H86        30.4725   25.5070    0.5343 H         1 UNK         0.0940 
     87 H87        30.1199   26.2583   -0.9985 H         1 UNK         0.0940 
     88 H88        30.5578   28.5472    0.1788 H         1 UNK         0.0703 
     89 H89        28.2099   27.0774   -0.0201 H         1 UNK         0.3081 
     90 H90        25.9489   28.1640    1.5067 H         1 UNK         0.0719 
     91 H91        26.1844   30.7719   -0.0863 H         1 UNK         0.0809 
     92 H92        24.6749   30.0690    0.4931 H         1 UNK         0.0809 
     93 H93        25.8789   30.6364    1.6349 H         1 UNK         0.0809 
     94 H94        25.5438   27.1176   -0.3946 H         1 UNK         0.2990 
     95 H95        24.8349   27.1803   -2.7559 H         1 UNK         0.0690 
     96 H96        25.7409   28.7352   -4.4783 H         1 UNK         0.0788 
     97 H97        25.7865   27.0737   -5.0413 H         1 UNK         0.0788 
     98 H98        27.2667   27.8614   -4.4939 H         1 UNK         0.0788 
     99 H99        27.2821   25.7204   -3.3171 H         1 UNK         0.2993 
    100 H100       26.3341   22.9534   -2.0514 H         1 UNK         0.0949 
    101 H101       28.9497   24.5459   -2.3332 H         1 UNK         0.0767 
    102 H102       28.8006   22.8025   -2.4937 H         1 UNK         0.0767 
    103 H103       28.0005   23.8454   -3.6468 H         1 UNK         0.0767 
    104 H104       28.1204   24.0904    0.0661 H         1 UNK         0.3013 
    105 H105       29.0113   26.5212    2.6603 H         1 UNK         0.3121 
    106 H106       31.0118   27.4300    4.6925 H         1 UNK         0.0774 
    107 H107       29.1008   25.0485    4.7767 H         1 UNK         0.0815 
    108 H108       30.3171   25.4588    5.9779 H         1 UNK         0.0815 
    109 H109       30.8137   24.9677    4.3702 H         1 UNK         0.0815 
    110 H110       28.4976   28.9259    3.6001 H         1 UNK         0.2987 
    111 H111       27.3480   29.5477    6.3031 H         1 UNK         0.0949 
    112 H112       25.8296   29.3126    3.6587 H         1 UNK         0.0806 
    113 H113       25.6348   28.2993    5.0883 H         1 UNK         0.0806 
    114 H114       25.1684   29.9873    5.1402 H         1 UNK         0.0806 
    115 H115       28.1800   30.7920    3.0429 H         1 UNK         0.3010 
    116 H116       27.4928   33.4737    3.5421 H         1 UNK         0.0829 
    117 H117       27.7125   32.5857    1.2745 H         1 UNK         0.0813 
    118 H118       28.8081   33.9413    1.4776 H         1 UNK         0.0813 
    119 H119       29.4346   32.3003    1.4901 H         1 UNK         0.0813 
    120 H120       31.4350   33.4543    4.7761 H         1 UNK         0.3038 
    121 H121       30.4887   31.1379    3.1815 H         1 UNK         0.0769 
    122 H122       32.0416   31.1022    5.8418 H         1 UNK         0.0811 
    123 H123       31.6692   29.7021    4.8519 H         1 UNK         0.0811 
    124 H124       30.3778   30.5745    5.6617 H         1 UNK         0.0811 
    125 H125       32.1472   30.1368    2.0760 H         1 UNK         0.3204 
    126 H126       34.6638   31.6403    1.6154 H         1 UNK         0.0748 
    127 H127       33.5312   29.1047    0.3164 H         1 UNK         0.0771 
    128 H128       33.4724   30.7251   -0.3738 H         1 UNK         0.0771 
    129 H129       35.0175   29.9173   -0.1536 H         1 UNK         0.0771 
    130 H130       33.3330   28.7580    3.1757 H         1 UNK         0.2980 
    131 H131       35.7719   27.5432    3.9621 H         1 UNK         0.0545 
    132 H132       35.3962   30.5474    6.6617 H         1 UNK         0.3459 
    133 H133       34.4593   30.5395    5.1898 H         1 UNK         0.3459 
    134 H134       33.1492   27.2929    5.4966 H         1 UNK         0.0616 
    135 H135       33.2991   26.6015    3.9106 H         1 UNK         0.0616 
    136 H136       35.8014   23.6655    4.3419 H         1 UNK         0.0634 
    137 H137       35.9549   25.1828    3.4984 H         1 UNK         0.0634 
@<TRIPOS>BOND
     1    1    2 1    
     2    1   72 1    
     3    1   73 1    
     4    1   74 1    
     5    2    3 2    
     6    2    4 am   BACKBONE|DICT|INTERRES
     7    4    5 1    
     8    4   75 1    
     9    5    6 1    
    10    5   35 1    
    11    5   76 1    
    12    6    7 1    
    13    6   77 1    
    14    6   78 1    
    15    7    8 1    
    16    8    9 1    
    17    8   79 1    
    18    8   80 1    
    19    9   10 ar   
    20    9   14 ar   
    21   10   11 ar   
    22   10   81 1    
    23   11   12 ar   
    24   11   71 1    
    25   12   13 ar   
    26   12   82 1    
    27   13   14 ar   
    28   13   15 1    
    29   14   83 1    
    30   15   16 1    
    31   15   84 1    
    32   15   85 1    
    33   16   17 1    
    34   17   18 1    
    35   17   86 1    
    36   17   87 1    
    37   18   19 1    
    38   18   37 1    
    39   18   88 1    
    40   19   20 am   BACKBONE|DICT|INTERRES
    41   19   89 1    
    42   20   21 2    
    43   20   22 1    
    44   22   23 1    
    45   22   24 1    
    46   22   90 1    
    47   23   91 1    
    48   23   92 1    
    49   23   93 1    
    50   24   25 am   BACKBONE|DICT|INTERRES
    51   24   94 1    
    52   25   26 2    
    53   25   27 1    
    54   27   28 1    
    55   27   29 1    
    56   27   95 1    
    57   28   96 1    
    58   28   97 1    
    59   28   98 1    
    60   29   30 am   BACKBONE|DICT|INTERRES
    61   29   99 1    
    62   30   31 2    
    63   30   32 1    
    64   32   33 1    
    65   32   34 1    
    66   32  100 1    
    67   33  101 1    
    68   33  102 1    
    69   33  103 1    
    70   34   35 am   BACKBONE|DICT|INTERRES
    71   34  104 1    
    72   35   36 2    
    73   37   38 2    
    74   37   39 am   BACKBONE|DICT|INTERRES
    75   39   40 1    
    76   39  105 1    
    77   40   41 1    
    78   40   42 1    
    79   40  106 1    
    80   41  107 1    
    81   41  108 1    
    82   41  109 1    
    83   42   43 2    
    84   42   44 am   BACKBONE|DICT|INTERRES
    85   44   45 1    
    86   44  110 1    
    87   45   46 1    
    88   45   47 1    
    89   45  111 1    
    90   46  112 1    
    91   46  113 1    
    92   46  114 1    
    93   47   48 2    
    94   47   49 am   BACKBONE|DICT|INTERRES
    95   49   50 1    
    96   49  115 1    
    97   50   51 1    
    98   50   52 1    
    99   50  116 1    
   100   51  117 1    
   101   51  118 1    
   102   51  119 1    
   103   52   53 2    
   104   52   54 am   BACKBONE|DICT|INTERRES
   105   54   55 1    
   106   54  120 1    
   107   55   56 1    
   108   55   57 1    
   109   55  121 1    
   110   56  122 1    
   111   56  123 1    
   112   56  124 1    
   113   57   58 2    
   114   57   59 am   BACKBONE|DICT|INTERRES
   115   59   60 1    
   116   59  125 1    
   117   60   61 1    
   118   60   62 1    
   119   60  126 1    
   120   61  127 1    
   121   61  128 1    
   122   61  129 1    
   123   62   63 2    
   124   62   64 am   BACKBONE|DICT|INTERRES
   125   64   65 1    
   126   64  130 1    
   127   65   66 1    
   128   65   69 1    
   129   65  131 1    
   130   66   67 am   BACKBONE|DICT|INTERRES
   131   66   68 2    
   132   67  132 1    
   133   67  133 1    
   134   69   70 1    
   135   69  134 1    
   136   69  135 1    
   137   70   71 1    
   138   71  136 1    
   139   71  137 1    
@<TRIPOS>SUBSTRUCTURE
     1 UNK         1 GROUP             0       ****    0 ROOT    
