@<TRIPOS>MOLECULE
3R136
137   139    1
SMALL
USER_CHARGES


@<TRIPOS>ATOM
      1 CA         32.1684   26.8996    0.4028 C.3       0 UNK        -0.1979 
      2 C          30.9666   26.0089    0.6855 C.2       0 UNK         0.4864 
      3 O          29.9340   26.5030    1.1376 O.2       0 UNK        -0.5359 
      4 N          31.0995   24.6980    0.4431 N.am      1 UNK        -0.4318 
      5 CA         30.0213   23.7175    0.6137 C.3       1 UNK         0.0824 
      6 C6         30.5800   22.2776    0.7564 C.3       12 UNK        -0.0944 
      7 S7         29.5269   21.2073    1.7904 S.3       12 UNK        -0.2672 
      8 C8         30.2716   21.4367    3.4398 C.3       12 UNK         0.0333 
      9 C9         29.8970   22.7857    4.0367 C.ar      12 UNK        -0.0807 
     10 C10        30.7815   23.8678    3.9683 C.ar      12 UNK        -0.0894 
     11 C11        30.4073   25.1183    4.4703 C.ar      12 UNK        -0.0804 
     12 C12        29.1575   25.2750    5.0734 C.ar      12 UNK        -0.0824 
     13 C13        28.2699   24.1991    5.1539 C.ar      12 UNK        -0.0762 
     14 C14        28.6455   22.9567    4.6356 C.ar      12 UNK        -0.0782 
     15 C15        26.9005   24.3765    5.7894 C.3       12 UNK         0.0230 
     16 S16        25.6224   24.7176    4.5388 S.3       12 UNK        -0.2608 
     17 C17        25.9761   26.4534    4.0922 C.3       12 UNK        -0.0989 
     18 CA         26.4165   26.6305    2.6149 C.3       5 UNK         0.0716 
     19 N          25.3978   26.1020    1.7001 N.am      5 UNK        -0.4135 
     20 C          25.3891   26.1647    0.3630 C.2       4 UNK         0.5031 
     21 O          26.2137   26.7736   -0.3244 O.2       4 UNK        -0.5229 
     22 CA         24.2488   25.4124   -0.3340 C.3       4 UNK         0.0329 
     23 CB         22.9987   26.3002   -0.4759 C.3       4 UNK        -0.2001 
     24 N          24.7316   25.0017   -1.6463 N.am      4 UNK        -0.4303 
     25 C          24.2516   24.0102   -2.4060 C.2       3 UNK         0.5044 
     26 O          23.2707   23.3292   -2.1043 O.2       3 UNK        -0.5152 
     27 CA         24.9861   23.7278   -3.7311 C.3       3 UNK         0.0319 
     28 CB         24.2579   24.4066   -4.9029 C.3       3 UNK        -0.2001 
     29 N          26.3761   24.1910   -3.6966 N.am      3 UNK        -0.4354 
     30 C          27.3972   23.4963   -3.1763 C.2       2 UNK         0.4964 
     31 O          27.3195   22.3095   -2.8510 O.2       2 UNK        -0.5047 
     32 CA         28.7350   24.2499   -2.9988 C.3       2 UNK         0.0288 
     33 CB         28.6065   25.7873   -3.1063 C.3       2 UNK        -0.2113 
     34 N          29.4532   23.9197   -1.7590 N.am      2 UNK        -0.4145 
     35 C          28.9690   23.8527   -0.5049 C.2       1 UNK         0.5006 
     36 O          27.7791   23.9454   -0.2024 O.2       1 UNK        -0.5103 
     37 C          26.7490   28.1146    2.3498 C.2       5 UNK         0.5055 
     38 O          25.8746   28.9684    2.5246 O.2       5 UNK        -0.5220 
     39 N          27.9980   28.3967    1.9603 N.am      6 UNK        -0.4450 
     40 CA         28.5360   29.7505    1.8225 C.3       6 UNK         0.0367 
     41 CB         29.7345   29.7137    0.8600 C.3       6 UNK        -0.1929 
     42 C          28.9489   30.3375    3.1853 C.2       6 UNK         0.5070 
     43 O          28.9726   29.6294    4.1961 O.2       6 UNK        -0.5237 
     44 N          29.2779   31.6354    3.1772 N.am      7 UNK        -0.4739 
     45 CA         29.7651   32.3920    4.3334 C.3       7 UNK         0.0276 
     46 CB         29.8058   33.8835    3.9595 C.3       7 UNK        -0.1927 
     47 C          31.1536   31.9282    4.8082 C.2       7 UNK         0.5013 
     48 O          31.9104   31.3384    4.0318 O.2       7 UNK        -0.5193 
     49 N          31.4891   32.2658    6.0619 N.am      8 UNK        -0.4253 
     50 CA         32.7409   31.9122    6.7462 C.3       8 UNK         0.0242 
     51 CB         32.7394   32.5204    8.1576 C.3       8 UNK        -0.2000 
     52 C          34.0288   32.3036    5.9982 C.2       8 UNK         0.4948 
     53 O          35.0230   31.5856    6.1022 O.2       8 UNK        -0.5275 
     54 N          33.9778   33.3993    5.2270 N.am      9 UNK        -0.4246 
     55 CA         35.0591   33.8584    4.3505 C.3       9 UNK         0.0261 
     56 CB         34.7036   35.2458    3.7919 C.3       9 UNK        -0.1959 
     57 C          35.3843   32.8830    3.2020 C.2       9 UNK         0.5033 
     58 O          36.5375   32.8337    2.7714 O.2       9 UNK        -0.5390 
     59 N          34.3804   32.1283    2.7339 N.am      10 UNK        -0.4215 
     60 CA         34.5369   31.0608    1.7452 C.3       10 UNK         0.0240 
     61 CB         33.2928   31.0124    0.8438 C.3       10 UNK        -0.1982 
     62 C          34.7616   29.7028    2.4275 C.2       10 UNK         0.4970 
     63 O          35.5438   28.8992    1.9193 O.2       10 UNK        -0.4916 
     64 N          34.0706   29.4693    3.5521 N.am      11 UNK        -0.4279 
     65 CA         34.1716   28.2506    4.3671 C.3       11 UNK         0.1003 
     66 C          35.5713   28.0199    5.0031 C.2       11 UNK         0.5709 
     67 N          36.2394   29.0563    5.4944 N.am      11 UNK        -0.7358 
     68 O          36.0601   26.8933    5.0382 O.2       11 UNK        -0.4999 
     69 C69        33.0397   28.1985    5.4294 C.3       12 UNK        -0.0954 
     70 S70        32.4297   26.5125    5.7464 S.3       12 UNK        -0.2268 
     71 C71        31.3237   26.3195    4.3199 C.3       12 UNK         0.0203 
     72 H72        33.0365   26.3249    0.0808 H         1 UNK         0.0888 
     73 H73        31.9254   27.6158   -0.3816 H         1 UNK         0.0888 
     74 H74        32.4457   27.4564    1.2974 H         1 UNK         0.0888 
     75 H75        31.9755   24.3442    0.0861 H         1 UNK         0.3017 
     76 H76        29.5065   23.9773    1.5407 H         1 UNK         0.0873 
     77 H77        31.5728   22.2984    1.2087 H         1 UNK         0.0745 
     78 H78        30.7179   21.8020   -0.2165 H         1 UNK         0.0745 
     79 H79        31.3551   21.3228    3.3813 H         1 UNK         0.0705 
     80 H80        29.9196   20.6399    4.0968 H         1 UNK         0.0705 
     81 H81        31.7457   23.7472    3.4938 H         1 UNK         0.1334 
     82 H82        28.8741   26.2422    5.4650 H         1 UNK         0.1417 
     83 H83        27.9543   22.1257    4.6805 H         1 UNK         0.1562 
     84 H84        26.9167   25.1754    6.5325 H         1 UNK         0.0748 
     85 H85        26.6284   23.4684    6.3297 H         1 UNK         0.0748 
     86 H86        26.7309   26.8594    4.7670 H         1 UNK         0.0940 
     87 H87        25.0708   27.0316    4.2894 H         1 UNK         0.0940 
     88 H88        27.3223   26.0409    2.4537 H         1 UNK         0.0703 
     89 H89        24.6609   25.5832    2.1542 H         1 UNK         0.3081 
     90 H90        24.0061   24.5205    0.2480 H         1 UNK         0.0719 
     91 H91        22.6380   26.6279    0.4998 H         1 UNK         0.0809 
     92 H92        23.2074   27.1944   -1.0647 H         1 UNK         0.0809 
     93 H93        22.1816   25.7644   -0.9591 H         1 UNK         0.0809 
     94 H94        25.5784   25.4808   -1.9260 H         1 UNK         0.2990 
     95 H95        24.9683   22.6487   -3.8987 H         1 UNK         0.0690 
     96 H96        24.2330   25.4914   -4.7916 H         1 UNK         0.0788 
     97 H97        23.2248   24.0624   -4.9708 H         1 UNK         0.0788 
     98 H98        24.7376   24.1766   -5.8545 H         1 UNK         0.0788 
     99 H99        26.5428   25.1474   -3.9752 H         1 UNK         0.2993 
    100 H100       29.3721   23.9130   -3.8180 H         1 UNK         0.0949 
    101 H101       27.9444   26.1921   -2.3399 H         1 UNK         0.0767 
    102 H102       29.5766   26.2691   -2.9819 H         1 UNK         0.0767 
    103 H103       28.2292   26.0975   -4.0813 H         1 UNK         0.0767 
    104 H104       30.4481   23.7896   -1.8707 H         1 UNK         0.3013 
    105 H105       28.6574   27.6359    1.7945 H         1 UNK         0.3121 
    106 H106       27.7644   30.3914    1.3906 H         1 UNK         0.0774 
    107 H107       30.0645   30.7196    0.5995 H         1 UNK         0.0815 
    108 H108       30.5833   29.1952    1.3058 H         1 UNK         0.0815 
    109 H109       29.4829   29.2063   -0.0717 H         1 UNK         0.0815 
    110 H110       29.2579   32.1304    2.2977 H         1 UNK         0.2987 
    111 H111       29.0568   32.2475    5.1522 H         1 UNK         0.0949 
    112 H112       28.8238   34.2418    3.6495 H         1 UNK         0.0806 
    113 H113       30.1153   34.4972    4.8065 H         1 UNK         0.0806 
    114 H114       30.5054   34.0765    3.1448 H         1 UNK         0.0806 
    115 H115       30.8120   32.7712    6.6156 H         1 UNK         0.3010 
    116 H116       32.7490   30.8269    6.8494 H         1 UNK         0.0829 
    117 H117       31.8978   32.1564    8.7474 H         1 UNK         0.0813 
    118 H118       33.6487   32.2538    8.6987 H         1 UNK         0.0813 
    119 H119       32.6852   33.6095    8.1289 H         1 UNK         0.0813 
    120 H120       33.1199   33.9310    5.2113 H         1 UNK         0.3038 
    121 H121       35.9602   33.9553    4.9601 H         1 UNK         0.0769 
    122 H122       35.5034   35.6258    3.1544 H         1 UNK         0.0811 
    123 H123       34.5584   35.9716    4.5922 H         1 UNK         0.0811 
    124 H124       33.7935   35.2193    3.1911 H         1 UNK         0.0811 
    125 H125       33.4703   32.1926    3.1793 H         1 UNK         0.3204 
    126 H126       35.4030   31.2649    1.1118 H         1 UNK         0.0748 
    127 H127       33.3701   30.2093    0.1094 H         1 UNK         0.0771 
    128 H128       32.3858   30.8419    1.4226 H         1 UNK         0.0771 
    129 H129       33.1670   31.9451    0.2939 H         1 UNK         0.0771 
    130 H130       33.4001   30.1647    3.8639 H         1 UNK         0.2980 
    131 H131       34.0169   27.4286    3.6659 H         1 UNK         0.0545 
    132 H132       37.1498   28.9072    5.8981 H         1 UNK         0.3459 
    133 H133       35.8141   29.9790    5.5390 H         1 UNK         0.3459 
    134 H134       33.3659   28.6301    6.3769 H         1 UNK         0.0616 
    135 H135       32.1848   28.8014    5.1184 H         1 UNK         0.0616 
    136 H136       30.7244   27.2219    4.1845 H         1 UNK         0.0634 
    137 H137       31.9296   26.2157    3.4207 H         1 UNK         0.0634 
@<TRIPOS>BOND
     1    1    2 1    
     2    1   72 1    
     3    1   73 1    
     4    1   74 1    
     5    2    3 2    
     6    2    4 am   BACKBONE|DICT|INTERRES
     7    4    5 1    
     8    4   75 1    
     9    5    6 1    
    10    5   35 1    
    11    5   76 1    
    12    6    7 1    
    13    6   77 1    
    14    6   78 1    
    15    7    8 1    
    16    8    9 1    
    17    8   79 1    
    18    8   80 1    
    19    9   10 ar   
    20    9   14 ar   
    21   10   11 ar   
    22   10   81 1    
    23   11   12 ar   
    24   11   71 1    
    25   12   13 ar   
    26   12   82 1    
    27   13   14 ar   
    28   13   15 1    
    29   14   83 1    
    30   15   16 1    
    31   15   84 1    
    32   15   85 1    
    33   16   17 1    
    34   17   18 1    
    35   17   86 1    
    36   17   87 1    
    37   18   19 1    
    38   18   37 1    
    39   18   88 1    
    40   19   20 am   BACKBONE|DICT|INTERRES
    41   19   89 1    
    42   20   21 2    
    43   20   22 1    
    44   22   23 1    
    45   22   24 1    
    46   22   90 1    
    47   23   91 1    
    48   23   92 1    
    49   23   93 1    
    50   24   25 am   BACKBONE|DICT|INTERRES
    51   24   94 1    
    52   25   26 2    
    53   25   27 1    
    54   27   28 1    
    55   27   29 1    
    56   27   95 1    
    57   28   96 1    
    58   28   97 1    
    59   28   98 1    
    60   29   30 am   BACKBONE|DICT|INTERRES
    61   29   99 1    
    62   30   31 2    
    63   30   32 1    
    64   32   33 1    
    65   32   34 1    
    66   32  100 1    
    67   33  101 1    
    68   33  102 1    
    69   33  103 1    
    70   34   35 am   BACKBONE|DICT|INTERRES
    71   34  104 1    
    72   35   36 2    
    73   37   38 2    
    74   37   39 am   BACKBONE|DICT|INTERRES
    75   39   40 1    
    76   39  105 1    
    77   40   41 1    
    78   40   42 1    
    79   40  106 1    
    80   41  107 1    
    81   41  108 1    
    82   41  109 1    
    83   42   43 2    
    84   42   44 am   BACKBONE|DICT|INTERRES
    85   44   45 1    
    86   44  110 1    
    87   45   46 1    
    88   45   47 1    
    89   45  111 1    
    90   46  112 1    
    91   46  113 1    
    92   46  114 1    
    93   47   48 2    
    94   47   49 am   BACKBONE|DICT|INTERRES
    95   49   50 1    
    96   49  115 1    
    97   50   51 1    
    98   50   52 1    
    99   50  116 1    
   100   51  117 1    
   101   51  118 1    
   102   51  119 1    
   103   52   53 2    
   104   52   54 am   BACKBONE|DICT|INTERRES
   105   54   55 1    
   106   54  120 1    
   107   55   56 1    
   108   55   57 1    
   109   55  121 1    
   110   56  122 1    
   111   56  123 1    
   112   56  124 1    
   113   57   58 2    
   114   57   59 am   BACKBONE|DICT|INTERRES
   115   59   60 1    
   116   59  125 1    
   117   60   61 1    
   118   60   62 1    
   119   60  126 1    
   120   61  127 1    
   121   61  128 1    
   122   61  129 1    
   123   62   63 2    
   124   62   64 am   BACKBONE|DICT|INTERRES
   125   64   65 1    
   126   64  130 1    
   127   65   66 1    
   128   65   69 1    
   129   65  131 1    
   130   66   67 am   BACKBONE|DICT|INTERRES
   131   66   68 2    
   132   67  132 1    
   133   67  133 1    
   134   69   70 1    
   135   69  134 1    
   136   69  135 1    
   137   70   71 1    
   138   71  136 1    
   139   71  137 1    
@<TRIPOS>SUBSTRUCTURE
     1 UNK         1 GROUP             0       ****    0 ROOT    
