@<TRIPOS>MOLECULE
3R136
137   139    1
SMALL
USER_CHARGES


@<TRIPOS>ATOM
      1 CA         28.7428   19.6030   -3.0759 C.3       0 UNK        -0.1979 
      2 C          28.7441   20.8628   -2.2239 C.2       0 UNK         0.4864 
      3 O          28.0598   21.8281   -2.5629 O.2       0 UNK        -0.5359 
      4 N          29.4919   20.8560   -1.1100 N.am      1 UNK        -0.4318 
      5 CA         29.6520   21.9805   -0.1748 C.3       1 UNK         0.0824 
      6 C6         30.6586   21.6291    0.9495 C.3       12 UNK        -0.0944 
      7 S7         31.4566   23.0993    1.6811 S.3       12 UNK        -0.2672 
      8 C8         30.9614   23.0001    3.4324 C.3       12 UNK         0.0333 
      9 C9         30.1516   24.2172    3.8509 C.ar      12 UNK        -0.0807 
     10 C10        30.8045   25.3871    4.2495 C.ar      12 UNK        -0.0894 
     11 C11        30.0723   26.5102    4.6449 C.ar      12 UNK        -0.0804 
     12 C12        28.6752   26.4517    4.6582 C.ar      12 UNK        -0.0824 
     13 C13        28.0109   25.2851    4.2651 C.ar      12 UNK        -0.0762 
     14 C14        28.7543   24.1728    3.8577 C.ar      12 UNK        -0.0782 
     15 C15        26.4911   25.2146    4.2962 C.3       12 UNK         0.0230 
     16 S16        25.7643   25.4554    2.6456 S.3       12 UNK        -0.2608 
     17 C17        26.0176   27.2398    2.3713 C.3       12 UNK        -0.0989 
     18 CA         27.2348   27.5447    1.4625 C.3       5 UNK         0.0716 
     19 N          27.1160   26.9033    0.1504 N.am      5 UNK        -0.4135 
     20 C          28.0864   26.8397   -0.7712 C.2       4 UNK         0.5031 
     21 O          29.2108   27.3205   -0.6153 O.2       4 UNK        -0.5229 
     22 CA         27.7446   26.1124   -2.0838 C.3       4 UNK         0.0329 
     23 CB         28.9941   25.5716   -2.8056 C.3       4 UNK        -0.2001 
     24 N          26.8185   25.0034   -1.8473 N.am      4 UNK        -0.4303 
     25 C          25.7125   24.7481   -2.5611 C.2       3 UNK         0.5044 
     26 O          25.3078   25.4798   -3.4659 O.2       3 UNK        -0.5152 
     27 CA         24.9176   23.4677   -2.2355 C.3       3 UNK         0.0319 
     28 CB         24.7664   22.5826   -3.4857 C.3       3 UNK        -0.2001 
     29 N          25.5534   22.6787   -1.1785 N.am      3 UNK        -0.4354 
     30 C          25.1373   22.6244    0.0950 C.2       2 UNK         0.4964 
     31 O          24.1012   23.1577    0.4923 O.2       2 UNK        -0.5047 
     32 CA         26.0076   21.8505    1.1089 C.3       2 UNK         0.0288 
     33 CB         25.3315   20.5255    1.4983 C.3       2 UNK        -0.2113 
     34 N          27.3753   21.5687    0.6598 N.am      2 UNK        -0.4145 
     35 C          28.3102   22.4931    0.3927 C.2       1 UNK         0.5006 
     36 O          28.1170   23.7027    0.5020 O.2       1 UNK        -0.5103 
     37 C          27.4219   29.0702    1.3379 C.2       5 UNK         0.5055 
     38 O          26.8689   29.6918    0.4260 O.2       5 UNK        -0.5220 
     39 N          28.1529   29.6448    2.2949 N.am      6 UNK        -0.4450 
     40 CA         28.4012   31.0731    2.4590 C.3       6 UNK         0.0367 
     41 CB         29.5410   31.5201    1.5178 C.3       6 UNK        -0.1929 
     42 C          28.7214   31.3222    3.9419 C.2       6 UNK         0.5070 
     43 O          28.4679   30.4487    4.7772 O.2       6 UNK        -0.5237 
     44 N          29.2900   32.4937    4.2512 N.am      7 UNK        -0.4739 
     45 CA         29.9146   32.7750    5.5458 C.3       7 UNK         0.0276 
     46 CB         30.1884   34.2834    5.6558 C.3       7 UNK        -0.1927 
     47 C          31.2272   31.9860    5.6782 C.2       7 UNK         0.5013 
     48 O          31.9368   31.8322    4.6823 O.2       7 UNK        -0.5193 
     49 N          31.5596   31.5435    6.8981 N.am      8 UNK        -0.4253 
     50 CA         32.7211   30.6917    7.1980 C.3       8 UNK         0.0242 
     51 CB         32.7369   30.3658    8.7001 C.3       8 UNK        -0.2000 
     52 C          34.0867   31.2535    6.7544 C.2       8 UNK         0.4948 
     53 O          34.9923   30.4704    6.4699 O.2       8 UNK        -0.5275 
     54 N          34.2041   32.5865    6.6795 N.am      9 UNK        -0.4246 
     55 CA         35.3738   33.2907    6.1495 C.3       9 UNK         0.0261 
     56 CB         35.3385   34.7510    6.6300 C.3       9 UNK        -0.1959 
     57 C          35.4830   33.2360    4.6123 C.2       9 UNK         0.5033 
     58 O          36.5889   33.3929    4.0924 O.2       9 UNK        -0.5390 
     59 N          34.3560   33.0404    3.9129 N.am      10 UNK        -0.4215 
     60 CA         34.2835   32.9418    2.4538 C.3       10 UNK         0.0240 
     61 CB         32.9777   33.5889    1.9610 C.3       10 UNK        -0.1982 
     62 C          34.3789   31.4851    1.9740 C.2       10 UNK         0.4970 
     63 O          34.9210   31.2521    0.8927 O.2       10 UNK        -0.4916 
     64 N          33.8567   30.5400    2.7689 N.am      11 UNK        -0.4279 
     65 CA         33.9284   29.0901    2.5242 C.3       11 UNK         0.1003 
     66 C          35.3848   28.5535    2.4298 C.2       11 UNK         0.5709 
     67 N          35.6214   27.5497    1.5955 N.am      11 UNK        -0.7358 
     68 O          36.2881   29.0057    3.1311 O.2       11 UNK        -0.4999 
     69 C69        33.1351   28.2896    3.5885 C.3       12 UNK        -0.0954 
     70 S70        31.3657   28.7165    3.6104 S.3       12 UNK        -0.2268 
     71 C71        30.7896   27.7845    5.0614 C.3       12 UNK         0.0203 
     72 H72        29.1085   19.8293   -4.0771 H         1 UNK         0.0888 
     73 H73        29.3738   18.8220   -2.6521 H         1 UNK         0.0888 
     74 H74        27.7297   19.2115   -3.1637 H         1 UNK         0.0888 
     75 H75        30.0260   20.0271   -0.8899 H         1 UNK         0.3017 
     76 H76        30.0733   22.7968   -0.7657 H         1 UNK         0.0873 
     77 H77        31.4719   21.0275    0.5401 H         1 UNK         0.0745 
     78 H78        30.1949   21.0024    1.7130 H         1 UNK         0.0745 
     79 H79        31.8624   22.9324    4.0440 H         1 UNK         0.0705 
     80 H80        30.3980   22.0891    3.6356 H         1 UNK         0.0705 
     81 H81        31.8848   25.4253    4.2434 H         1 UNK         0.1334 
     82 H82        28.1056   27.3154    4.9743 H         1 UNK         0.1417 
     83 H83        28.2425   23.2732    3.5442 H         1 UNK         0.1562 
     84 H84        26.0802   25.9477    4.9921 H         1 UNK         0.0748 
     85 H85        26.1830   24.2379    4.6723 H         1 UNK         0.0748 
     86 H86        26.1206   27.7356    3.3384 H         1 UNK         0.0940 
     87 H87        25.1037   27.6417    1.9289 H         1 UNK         0.0940 
     88 H88        28.1315   27.1336    1.9315 H         1 UNK         0.0703 
     89 H89        26.2254   26.4784   -0.0568 H         1 UNK         0.3081 
     90 H90        27.2786   26.8616   -2.7268 H         1 UNK         0.0719 
     91 H91        29.6847   26.3770   -3.0580 H         1 UNK         0.0809 
     92 H92        29.5342   24.8565   -2.1841 H         1 UNK         0.0809 
     93 H93        28.7280   25.0701   -3.7363 H         1 UNK         0.0809 
     94 H94        27.0758   24.3827   -1.0851 H         1 UNK         0.2990 
     95 H95        23.9193   23.7840   -1.9269 H         1 UNK         0.0690 
     96 H96        25.7347   22.2771   -3.8838 H         1 UNK         0.0788 
     97 H97        24.2399   23.1122   -4.2808 H         1 UNK         0.0788 
     98 H98        24.1946   21.6810   -3.2658 H         1 UNK         0.0788 
     99 H99        26.4246   22.2266   -1.4406 H         1 UNK         0.2993 
    100 H100       26.0786   22.4740    2.0026 H         1 UNK         0.0949 
    101 H101       25.2495   19.8493    0.6463 H         1 UNK         0.0767 
    102 H102       25.8852   20.0125    2.2850 H         1 UNK         0.0767 
    103 H103       24.3224   20.6974    1.8762 H         1 UNK         0.0767 
    104 H104       27.6099   20.5982    0.5096 H         1 UNK         0.3013 
    105 H105       28.5246   29.0852    3.0535 H         1 UNK         0.3121 
    106 H106       27.4902   31.6252    2.2191 H         1 UNK         0.0774 
    107 H107       29.6653   32.6029    1.5260 H         1 UNK         0.0815 
    108 H108       30.4953   31.0756    1.8045 H         1 UNK         0.0815 
    109 H109       29.3405   31.2347    0.4851 H         1 UNK         0.0815 
    110 H110       29.4896   33.1444    3.5062 H         1 UNK         0.2987 
    111 H111       29.2301   32.4748    6.3425 H         1 UNK         0.0949 
    112 H112       29.2685   34.8610    5.5622 H         1 UNK         0.0806 
    113 H113       30.6278   34.5326    6.6225 H         1 UNK         0.0806 
    114 H114       30.8800   34.6269    4.8849 H         1 UNK         0.0806 
    115 H115       30.9355   31.7362    7.6686 H         1 UNK         0.3010 
    116 H116       32.5766   29.7581    6.6509 H         1 UNK         0.0829 
    117 H117       31.8263   29.8498    9.0052 H         1 UNK         0.0813 
    118 H118       33.5744   29.7124    8.9496 H         1 UNK         0.0813 
    119 H119       32.8344   31.2665    9.3075 H         1 UNK         0.0813 
    120 H120       33.4124   33.1514    6.9501 H         1 UNK         0.3038 
    121 H121       36.2713   32.8204    6.5575 H         1 UNK         0.0769 
    122 H122       36.2144   35.2983    6.2784 H         1 UNK         0.0811 
    123 H123       35.3372   34.8115    7.7185 H         1 UNK         0.0811 
    124 H124       34.4568   35.2772    6.2616 H         1 UNK         0.0811 
    125 H125       33.4930   32.8357    4.4101 H         1 UNK         0.3204 
    126 H126       35.1156   33.4922    2.0092 H         1 UNK         0.0748 
    127 H127       32.9121   33.5539    0.8727 H         1 UNK         0.0771 
    128 H128       32.0978   33.0811    2.3558 H         1 UNK         0.0771 
    129 H129       32.9195   34.6366    2.2561 H         1 UNK         0.0771 
    130 H130       33.3589   30.8254    3.6039 H         1 UNK         0.2980 
    131 H131       33.4552   28.9195    1.5552 H         1 UNK         0.0545 
    132 H132       36.5558   27.1775    1.5308 H         1 UNK         0.3459 
    133 H133       34.8868   27.1607    1.0252 H         1 UNK         0.3459 
    134 H134       33.2150   27.2180    3.3992 H         1 UNK         0.0616 
    135 H135       33.5536   28.4648    4.5816 H         1 UNK         0.0616 
    136 H136       31.6254   27.5443    5.7197 H         1 UNK         0.0634 
    137 H137       30.1235   28.4242    5.6421 H         1 UNK         0.0634 
@<TRIPOS>BOND
     1    1    2 1    
     2    1   72 1    
     3    1   73 1    
     4    1   74 1    
     5    2    3 2    
     6    2    4 am   BACKBONE|DICT|INTERRES
     7    4    5 1    
     8    4   75 1    
     9    5    6 1    
    10    5   35 1    
    11    5   76 1    
    12    6    7 1    
    13    6   77 1    
    14    6   78 1    
    15    7    8 1    
    16    8    9 1    
    17    8   79 1    
    18    8   80 1    
    19    9   10 ar   
    20    9   14 ar   
    21   10   11 ar   
    22   10   81 1    
    23   11   12 ar   
    24   11   71 1    
    25   12   13 ar   
    26   12   82 1    
    27   13   14 ar   
    28   13   15 1    
    29   14   83 1    
    30   15   16 1    
    31   15   84 1    
    32   15   85 1    
    33   16   17 1    
    34   17   18 1    
    35   17   86 1    
    36   17   87 1    
    37   18   19 1    
    38   18   37 1    
    39   18   88 1    
    40   19   20 am   BACKBONE|DICT|INTERRES
    41   19   89 1    
    42   20   21 2    
    43   20   22 1    
    44   22   23 1    
    45   22   24 1    
    46   22   90 1    
    47   23   91 1    
    48   23   92 1    
    49   23   93 1    
    50   24   25 am   BACKBONE|DICT|INTERRES
    51   24   94 1    
    52   25   26 2    
    53   25   27 1    
    54   27   28 1    
    55   27   29 1    
    56   27   95 1    
    57   28   96 1    
    58   28   97 1    
    59   28   98 1    
    60   29   30 am   BACKBONE|DICT|INTERRES
    61   29   99 1    
    62   30   31 2    
    63   30   32 1    
    64   32   33 1    
    65   32   34 1    
    66   32  100 1    
    67   33  101 1    
    68   33  102 1    
    69   33  103 1    
    70   34   35 am   BACKBONE|DICT|INTERRES
    71   34  104 1    
    72   35   36 2    
    73   37   38 2    
    74   37   39 am   BACKBONE|DICT|INTERRES
    75   39   40 1    
    76   39  105 1    
    77   40   41 1    
    78   40   42 1    
    79   40  106 1    
    80   41  107 1    
    81   41  108 1    
    82   41  109 1    
    83   42   43 2    
    84   42   44 am   BACKBONE|DICT|INTERRES
    85   44   45 1    
    86   44  110 1    
    87   45   46 1    
    88   45   47 1    
    89   45  111 1    
    90   46  112 1    
    91   46  113 1    
    92   46  114 1    
    93   47   48 2    
    94   47   49 am   BACKBONE|DICT|INTERRES
    95   49   50 1    
    96   49  115 1    
    97   50   51 1    
    98   50   52 1    
    99   50  116 1    
   100   51  117 1    
   101   51  118 1    
   102   51  119 1    
   103   52   53 2    
   104   52   54 am   BACKBONE|DICT|INTERRES
   105   54   55 1    
   106   54  120 1    
   107   55   56 1    
   108   55   57 1    
   109   55  121 1    
   110   56  122 1    
   111   56  123 1    
   112   56  124 1    
   113   57   58 2    
   114   57   59 am   BACKBONE|DICT|INTERRES
   115   59   60 1    
   116   59  125 1    
   117   60   61 1    
   118   60   62 1    
   119   60  126 1    
   120   61  127 1    
   121   61  128 1    
   122   61  129 1    
   123   62   63 2    
   124   62   64 am   BACKBONE|DICT|INTERRES
   125   64   65 1    
   126   64  130 1    
   127   65   66 1    
   128   65   69 1    
   129   65  131 1    
   130   66   67 am   BACKBONE|DICT|INTERRES
   131   66   68 2    
   132   67  132 1    
   133   67  133 1    
   134   69   70 1    
   135   69  134 1    
   136   69  135 1    
   137   70   71 1    
   138   71  136 1    
   139   71  137 1    
@<TRIPOS>SUBSTRUCTURE
     1 UNK         1 GROUP             0       ****    0 ROOT    
