@<TRIPOS>MOLECULE
3R136
137   139    1
SMALL
USER_CHARGES


@<TRIPOS>ATOM
      1 CA         29.0493   26.1899    2.5733 C.3       0 UNK        -0.1979 
      2 C          28.2564   24.9160    2.3369 C.2       0 UNK         0.4864 
      3 O          27.1001   24.8335    2.7572 O.2       0 UNK        -0.5359 
      4 N          28.8656   23.9243    1.6701 N.am      1 UNK        -0.4318 
      5 CA         28.2682   22.6222    1.3495 C.3       1 UNK         0.0824 
      6 C6         29.2517   21.7006    0.5912 C.3       12 UNK        -0.0944 
      7 S7         30.5734   21.0922    1.6891 S.3       12 UNK        -0.2672 
      8 C8         32.0781   21.7172    0.8793 C.3       12 UNK         0.0333 
      9 C9         32.2922   23.2071    1.1084 C.ar      12 UNK        -0.0807 
     10 C10        32.5353   23.6915    2.3972 C.ar      12 UNK        -0.0894 
     11 C11        32.8084   25.0456    2.6116 C.ar      12 UNK        -0.0804 
     12 C12        32.8337   25.9179    1.5181 C.ar      12 UNK        -0.0824 
     13 C13        32.5806   25.4521    0.2242 C.ar      12 UNK        -0.0762 
     14 C14        32.3141   24.0918    0.0268 C.ar      12 UNK        -0.0782 
     15 C15        32.6642   26.4269   -0.9470 C.3       12 UNK         0.0230 
     16 S16        31.4225   26.1444   -2.2539 S.3       12 UNK        -0.2608 
     17 C17        29.8440   26.3535   -1.3648 C.3       12 UNK        -0.0989 
     18 CA         28.9757   27.4891   -1.9820 C.3       5 UNK         0.0716 
     19 N          27.5571   27.1538   -2.0028 N.am      5 UNK        -0.4135 
     20 C          26.9637   26.2965   -2.8375 C.2       4 UNK         0.5031 
     21 O          27.5587   25.6758   -3.7206 O.2       4 UNK        -0.5229 
     22 CA         25.4565   26.0941   -2.6252 C.3       4 UNK         0.0329 
     23 CB         24.8866   24.9262   -3.4526 C.3       4 UNK        -0.2001 
     24 N          25.2021   25.8345   -1.2097 N.am      4 UNK        -0.4303 
     25 C          24.3776   26.5326   -0.4164 C.2       3 UNK         0.5044 
     26 O          23.7680   27.5374   -0.7862 O.2       3 UNK        -0.5152 
     27 CA         24.2089   26.0270    1.0352 C.3       3 UNK         0.0319 
     28 CB         22.8403   26.3988    1.6445 C.3       3 UNK        -0.2001 
     29 N          24.4800   24.5907    1.1824 N.am      3 UNK        -0.4354 
     30 C          23.8516   23.5795    0.5562 C.2       2 UNK         0.4964 
     31 O          22.8242   23.7245   -0.1080 O.2       2 UNK        -0.5047 
     32 CA         24.4871   22.1742    0.6502 C.3       2 UNK         0.0288 
     33 CB         24.3705   21.4017   -0.6819 C.3       2 UNK        -0.2113 
     34 N          25.8803   22.1588    1.1218 N.am      2 UNK        -0.4145 
     35 C          26.9435   22.7702    0.5740 C.2       1 UNK         0.5006 
     36 O          26.9038   23.4565   -0.4514 O.2       1 UNK        -0.5103 
     37 C          29.1317   28.8443   -1.2667 C.2       5 UNK         0.5055 
     38 O          28.1285   29.5153   -1.0020 O.2       5 UNK        -0.5220 
     39 N          30.3807   29.2218   -0.9644 N.am      6 UNK        -0.4450 
     40 CA         30.7425   30.4000   -0.1692 C.3       6 UNK         0.0367 
     41 CB         32.2751   30.5167   -0.1125 C.3       6 UNK        -0.1929 
     42 C          30.1589   30.3565    1.2567 C.2       6 UNK         0.5070 
     43 O          29.9136   29.2729    1.7898 O.2       6 UNK        -0.5237 
     44 N          29.9549   31.5427    1.8422 N.am      7 UNK        -0.4739 
     45 CA         29.3889   31.7363    3.1802 C.3       7 UNK         0.0276 
     46 CB         29.1586   33.2416    3.3999 C.3       7 UNK        -0.1927 
     47 C          30.2720   31.1671    4.3043 C.2       7 UNK         0.5013 
     48 O          31.4824   31.0131    4.1255 O.2       7 UNK        -0.5193 
     49 N          29.6600   30.9425    5.4763 N.am      8 UNK        -0.4253 
     50 CA         30.2981   30.4071    6.6874 C.3       8 UNK         0.0242 
     51 CB         29.2518   30.2945    7.8073 C.3       8 UNK        -0.2000 
     52 C          31.5272   31.1957    7.1803 C.2       8 UNK         0.4948 
     53 O          32.4046   30.6057    7.8096 O.2       8 UNK        -0.5275 
     54 N          31.5984   32.4922    6.8468 N.am      9 UNK        -0.4246 
     55 CA         32.7620   33.3543    7.0657 C.3       9 UNK         0.0261 
     56 CB         32.3884   34.8043    6.7171 C.3       9 UNK        -0.1959 
     57 C          34.0160   32.9182    6.2809 C.2       9 UNK         0.5033 
     58 O          35.1257   33.1786    6.7481 O.2       9 UNK        -0.5390 
     59 N          33.8331   32.2650    5.1226 N.am      10 UNK        -0.4215 
     60 CA         34.9160   31.6660    4.3401 C.3       10 UNK         0.0240 
     61 CB         34.5097   31.5840    2.8587 C.3       10 UNK        -0.1982 
     62 C          35.2911   30.2756    4.8764 C.2       10 UNK         0.4970 
     63 O          36.4733   29.9304    4.8651 O.2       10 UNK        -0.4916 
     64 N          34.2909   29.5089    5.3340 N.am      11 UNK        -0.4279 
     65 CA         34.4753   28.1901    5.9592 C.3       11 UNK         0.1003 
     66 C          35.1961   28.2558    7.3335 C.2       11 UNK         0.5709 
     67 N          34.8657   29.2119    8.1921 N.am      11 UNK        -0.7358 
     68 O          36.0641   27.4343    7.6186 O.2       11 UNK        -0.4999 
     69 C69        33.1458   27.4009    6.0795 C.3       12 UNK        -0.0954 
     70 S70        32.3467   27.1032    4.4683 S.3       12 UNK        -0.2268 
     71 C71        33.1538   25.5331    4.0146 C.3       12 UNK         0.0203 
     72 H72        30.0474   26.1408    2.1412 H         1 UNK         0.0888 
     73 H73        29.1552   26.3776    3.6414 H         1 UNK         0.0888 
     74 H74        28.5290   27.0375    2.1289 H         1 UNK         0.0888 
     75 H75        29.8226   24.0432    1.3690 H         1 UNK         0.3017 
     76 H76        28.0365   22.1508    2.3073 H         1 UNK         0.0873 
     77 H77        29.6739   22.2131   -0.2755 H         1 UNK         0.0745 
     78 H78        28.7378   20.8195    0.2009 H         1 UNK         0.0745 
     79 H79        32.9366   21.1772    1.2809 H         1 UNK         0.0705 
     80 H80        32.0426   21.4793   -0.1850 H         1 UNK         0.0705 
     81 H81        32.5379   23.0020    3.2309 H         1 UNK         0.1334 
     82 H82        33.0678   26.9620    1.6762 H         1 UNK         0.1417 
     83 H83        32.1488   23.7169   -0.9742 H         1 UNK         0.1562 
     84 H84        33.6566   26.3425   -1.3918 H         1 UNK         0.0748 
     85 H85        32.5766   27.4535   -0.5931 H         1 UNK         0.0748 
     86 H86        30.0118   26.5040   -0.2970 H         1 UNK         0.0940 
     87 H87        29.3298   25.3930   -1.4340 H         1 UNK         0.0940 
     88 H88        29.2716   27.6579   -3.0198 H         1 UNK         0.0703 
     89 H89        26.9968   27.6936   -1.3548 H         1 UNK         0.3081 
     90 H90        24.9643   27.0142   -2.9463 H         1 UNK         0.0719 
     91 H91        25.3728   23.9825   -3.2012 H         1 UNK         0.0809 
     92 H92        23.8167   24.8057   -3.2808 H         1 UNK         0.0809 
     93 H93        25.0274   25.0955   -4.5209 H         1 UNK         0.0809 
     94 H94        25.7007   25.0384   -0.8203 H         1 UNK         0.2990 
     95 H95        24.9774   26.5361    1.6187 H         1 UNK         0.0690 
     96 H96        22.7492   26.0333    2.6673 H         1 UNK         0.0788 
     97 H97        22.0127   25.9879    1.0656 H         1 UNK         0.0788 
     98 H98        22.7071   27.4808    1.6760 H         1 UNK         0.0788 
     99 H99        25.3166   24.3756    1.7164 H         1 UNK         0.2993 
    100 H100       23.9045   21.6352    1.3991 H         1 UNK         0.0949 
    101 H101       23.3273   21.2731   -0.9737 H         1 UNK         0.0767 
    102 H102       24.8731   21.9240   -1.4968 H         1 UNK         0.0767 
    103 H103       24.8060   20.4056   -0.6027 H         1 UNK         0.0767 
    104 H104       26.0269   21.6516    1.9843 H         1 UNK         0.3013 
    105 H105       31.1341   28.6042   -1.2263 H         1 UNK         0.3121 
    106 H106       30.3404   31.2767   -0.6816 H         1 UNK         0.0774 
    107 H107       32.7135   30.5412   -1.1103 H         1 UNK         0.0815 
    108 H108       32.7232   29.6869    0.4356 H         1 UNK         0.0815 
    109 H109       32.5762   31.4353    0.3927 H         1 UNK         0.0815 
    110 H110       30.2218   32.3793    1.3442 H         1 UNK         0.2987 
    111 H111       28.4267   31.2201    3.2100 H         1 UNK         0.0949 
    112 H112       30.0953   33.8005    3.3758 H         1 UNK         0.0806 
    113 H113       28.5004   33.6581    2.6370 H         1 UNK         0.0806 
    114 H114       28.6885   33.4355    4.3649 H         1 UNK         0.0806 
    115 H115       28.6677   31.1205    5.5402 H         1 UNK         0.3010 
    116 H116       30.6416   29.4010    6.4416 H         1 UNK         0.0829 
    117 H117       28.4278   29.6418    7.5184 H         1 UNK         0.0813 
    118 H118       29.6925   29.8728    8.7121 H         1 UNK         0.0813 
    119 H119       28.8355   31.2676    8.0709 H         1 UNK         0.0813 
    120 H120       30.8244   32.8936    6.3387 H         1 UNK         0.3038 
    121 H121       33.0110   33.3098    8.1281 H         1 UNK         0.0769 
    122 H122       32.1056   34.9083    5.6687 H         1 UNK         0.0811 
    123 H123       33.2288   35.4768    6.8959 H         1 UNK         0.0811 
    124 H124       31.5576   35.1589    7.3274 H         1 UNK         0.0811 
    125 H125       32.8881   32.0434    4.8157 H         1 UNK         0.3204 
    126 H126       35.7999   32.3041    4.4090 H         1 UNK         0.0748 
    127 H127       34.2248   32.5615    2.4695 H         1 UNK         0.0771 
    128 H128       35.3380   31.2202    2.2494 H         1 UNK         0.0771 
    129 H129       33.6722   30.9034    2.7030 H         1 UNK         0.0771 
    130 H130       33.3432   29.8534    5.2820 H         1 UNK         0.2980 
    131 H131       35.1301   27.6189    5.2983 H         1 UNK         0.0545 
    132 H132       35.3335   29.2620    9.0823 H         1 UNK         0.3459 
    133 H133       34.0815   29.8294    7.9945 H         1 UNK         0.3459 
    134 H134       33.3120   26.4381    6.5666 H         1 UNK         0.0616 
    135 H135       32.4429   27.9380    6.7169 H         1 UNK         0.0616 
    136 H136       32.8817   24.7807    4.7566 H         1 UNK         0.0634 
    137 H137       34.2356   25.6561    4.0760 H         1 UNK         0.0634 
@<TRIPOS>BOND
     1    1    2 1    
     2    1   72 1    
     3    1   73 1    
     4    1   74 1    
     5    2    3 2    
     6    2    4 am   BACKBONE|DICT|INTERRES
     7    4    5 1    
     8    4   75 1    
     9    5    6 1    
    10    5   35 1    
    11    5   76 1    
    12    6    7 1    
    13    6   77 1    
    14    6   78 1    
    15    7    8 1    
    16    8    9 1    
    17    8   79 1    
    18    8   80 1    
    19    9   10 ar   
    20    9   14 ar   
    21   10   11 ar   
    22   10   81 1    
    23   11   12 ar   
    24   11   71 1    
    25   12   13 ar   
    26   12   82 1    
    27   13   14 ar   
    28   13   15 1    
    29   14   83 1    
    30   15   16 1    
    31   15   84 1    
    32   15   85 1    
    33   16   17 1    
    34   17   18 1    
    35   17   86 1    
    36   17   87 1    
    37   18   19 1    
    38   18   37 1    
    39   18   88 1    
    40   19   20 am   BACKBONE|DICT|INTERRES
    41   19   89 1    
    42   20   21 2    
    43   20   22 1    
    44   22   23 1    
    45   22   24 1    
    46   22   90 1    
    47   23   91 1    
    48   23   92 1    
    49   23   93 1    
    50   24   25 am   BACKBONE|DICT|INTERRES
    51   24   94 1    
    52   25   26 2    
    53   25   27 1    
    54   27   28 1    
    55   27   29 1    
    56   27   95 1    
    57   28   96 1    
    58   28   97 1    
    59   28   98 1    
    60   29   30 am   BACKBONE|DICT|INTERRES
    61   29   99 1    
    62   30   31 2    
    63   30   32 1    
    64   32   33 1    
    65   32   34 1    
    66   32  100 1    
    67   33  101 1    
    68   33  102 1    
    69   33  103 1    
    70   34   35 am   BACKBONE|DICT|INTERRES
    71   34  104 1    
    72   35   36 2    
    73   37   38 2    
    74   37   39 am   BACKBONE|DICT|INTERRES
    75   39   40 1    
    76   39  105 1    
    77   40   41 1    
    78   40   42 1    
    79   40  106 1    
    80   41  107 1    
    81   41  108 1    
    82   41  109 1    
    83   42   43 2    
    84   42   44 am   BACKBONE|DICT|INTERRES
    85   44   45 1    
    86   44  110 1    
    87   45   46 1    
    88   45   47 1    
    89   45  111 1    
    90   46  112 1    
    91   46  113 1    
    92   46  114 1    
    93   47   48 2    
    94   47   49 am   BACKBONE|DICT|INTERRES
    95   49   50 1    
    96   49  115 1    
    97   50   51 1    
    98   50   52 1    
    99   50  116 1    
   100   51  117 1    
   101   51  118 1    
   102   51  119 1    
   103   52   53 2    
   104   52   54 am   BACKBONE|DICT|INTERRES
   105   54   55 1    
   106   54  120 1    
   107   55   56 1    
   108   55   57 1    
   109   55  121 1    
   110   56  122 1    
   111   56  123 1    
   112   56  124 1    
   113   57   58 2    
   114   57   59 am   BACKBONE|DICT|INTERRES
   115   59   60 1    
   116   59  125 1    
   117   60   61 1    
   118   60   62 1    
   119   60  126 1    
   120   61  127 1    
   121   61  128 1    
   122   61  129 1    
   123   62   63 2    
   124   62   64 am   BACKBONE|DICT|INTERRES
   125   64   65 1    
   126   64  130 1    
   127   65   66 1    
   128   65   69 1    
   129   65  131 1    
   130   66   67 am   BACKBONE|DICT|INTERRES
   131   66   68 2    
   132   67  132 1    
   133   67  133 1    
   134   69   70 1    
   135   69  134 1    
   136   69  135 1    
   137   70   71 1    
   138   71  136 1    
   139   71  137 1    
@<TRIPOS>SUBSTRUCTURE
     1 UNK         1 GROUP             0       ****    0 ROOT    
