@<TRIPOS>MOLECULE
3R136
137   139    1
SMALL
USER_CHARGES


@<TRIPOS>ATOM
      1 CA         33.0335   19.9582    5.5768 C.3       0 UNK        -0.1979 
      2 C          32.3114   20.3796    4.3053 C.2       0 UNK         0.4864 
      3 O          32.4279   19.7028    3.2825 O.2       0 UNK        -0.5359 
      4 N          31.5665   21.4875    4.3633 N.am      1 UNK        -0.4318 
      5 CA         30.7747   22.0448    3.2697 C.3       1 UNK         0.0824 
      6 C6         31.6497   22.8391    2.2642 C.3       12 UNK        -0.0944 
      7 S7         30.8738   22.9634    0.6189 S.3       12 UNK        -0.2672 
      8 C8         31.8542   24.3137   -0.1200 C.3       12 UNK         0.0333 
      9 C9         31.3863   25.7365    0.1969 C.ar      12 UNK        -0.0807 
     10 C10        30.5069   26.0435    1.2447 C.ar      12 UNK        -0.0894 
     11 C11        30.1184   27.3636    1.4923 C.ar      12 UNK        -0.0804 
     12 C12        30.6086   28.3857    0.6785 C.ar      12 UNK        -0.0824 
     13 C13        31.4547   28.0955   -0.3964 C.ar      12 UNK        -0.0762 
     14 C14        31.8479   26.7735   -0.6195 C.ar      12 UNK        -0.0782 
     15 C15        31.9507   29.1966   -1.3239 C.3       12 UNK         0.0230 
     16 S16        30.7413   29.5813   -2.6334 S.3       12 UNK        -0.2608 
     17 C17        29.5615   30.6438   -1.7309 C.3       12 UNK        -0.0989 
     18 CA         28.0878   30.1400   -1.7063 C.3       5 UNK         0.0716 
     19 N          27.9476   28.6963   -1.4556 N.am      5 UNK        -0.4135 
     20 C          27.4351   27.8203   -2.3303 C.2       4 UNK         0.5031 
     21 O          27.0986   28.1111   -3.4795 O.2       4 UNK        -0.5229 
     22 CA         27.2150   26.3745   -1.8425 C.3       4 UNK         0.0329 
     23 CB         28.4813   25.5350   -2.0554 C.3       4 UNK        -0.2001 
     24 N          26.7440   26.2166   -0.4574 N.am      4 UNK        -0.4303 
     25 C          25.6593   26.7994    0.0702 C.2       3 UNK         0.5044 
     26 O          25.0483   27.7122   -0.4859 O.2       3 UNK        -0.5152 
     27 CA         25.1221   26.2997    1.4281 C.3       3 UNK         0.0319 
     28 CB         23.9079   25.3776    1.2034 C.3       3 UNK        -0.2001 
     29 N          26.0655   25.6695    2.3662 N.am      3 UNK        -0.4354 
     30 C          26.7952   24.5542    2.2238 C.2       2 UNK         0.4964 
     31 O          26.9158   23.9268    1.1697 O.2       2 UNK        -0.5047 
     32 CA         27.4906   24.0445    3.4920 C.3       2 UNK         0.0288 
     33 CB         26.5056   23.2470    4.3684 C.3       2 UNK        -0.2113 
     34 N          28.6201   23.2020    3.1119 N.am      2 UNK        -0.4145 
     35 C          29.6642   22.9078    3.8936 C.2       1 UNK         0.5006 
     36 O          29.7791   23.2976    5.0601 O.2       1 UNK        -0.5103 
     37 C          27.2504   30.9433   -0.6860 C.2       5 UNK         0.5055 
     38 O          27.5972   32.0886   -0.3928 O.2       5 UNK        -0.5220 
     39 N          26.2015   30.3271   -0.1174 N.am      6 UNK        -0.4450 
     40 CA         25.4022   30.7635    1.0354 C.3       6 UNK         0.0367 
     41 CB         24.7196   32.1281    0.8087 C.3       6 UNK        -0.1929 
     42 C          26.2016   30.7207    2.3495 C.2       6 UNK         0.5070 
     43 O          25.8513   29.9451    3.2387 O.2       6 UNK        -0.5237 
     44 N          27.2734   31.5150    2.4373 N.am      7 UNK        -0.4739 
     45 CA         28.2108   31.5597    3.5556 C.3       7 UNK         0.0276 
     46 CB         27.6653   32.4676    4.6723 C.3       7 UNK        -0.1927 
     47 C          29.5653   32.0658    3.0459 C.2       7 UNK         0.5013 
     48 O          29.5968   33.0132    2.2576 O.2       7 UNK        -0.5193 
     49 N          30.6522   31.4493    3.5192 N.am      8 UNK        -0.4253 
     50 CA         32.0437   31.7917    3.2304 C.3       8 UNK         0.0242 
     51 CB         32.4133   31.4009    1.7851 C.3       8 UNK        -0.2000 
     52 C          32.9343   31.0438    4.2306 C.2       8 UNK         0.4948 
     53 O          32.4397   30.1909    4.9716 O.2       8 UNK        -0.5275 
     54 N          34.2443   31.3270    4.2006 N.am      9 UNK        -0.4246 
     55 CA         35.2633   30.6610    5.0250 C.3       9 UNK         0.0261 
     56 CB         36.6310   31.3177    4.7777 C.3       9 UNK        -0.1959 
     57 C          35.3505   29.1367    4.8086 C.2       9 UNK         0.5033 
     58 O          35.6819   28.4134    5.7485 O.2       9 UNK        -0.5390 
     59 N          35.0017   28.6758    3.5979 N.am      10 UNK        -0.4215 
     60 CA         34.9044   27.2656    3.2040 C.3       10 UNK         0.0240 
     61 CB         34.5898   27.1942    1.7014 C.3       10 UNK        -0.1982 
     62 C          33.8701   26.4440    4.0003 C.2       10 UNK         0.4970 
     63 O          33.9961   25.2199    4.0475 O.2       10 UNK        -0.4916 
     64 N          32.8898   27.1182    4.6108 N.am      11 UNK        -0.4279 
     65 CA         31.8667   26.5405    5.4911 C.3       11 UNK         0.1003 
     66 C          31.8843   27.1592    6.9195 C.2       11 UNK         0.5709 
     67 N          32.9443   27.8485    7.3294 N.am      11 UNK        -0.7358 
     68 O          30.9423   26.9841    7.6890 O.2       11 UNK        -0.4999 
     69 C69        30.4667   26.5314    4.8198 C.3       12 UNK        -0.0954 
     70 S70        29.9306   28.1483    4.1656 S.3       12 UNK        -0.2268 
     71 C71        29.1277   27.6882    2.6015 C.3       12 UNK         0.0203 
     72 H72        32.8452   20.6476    6.3997 H         1 UNK         0.0888 
     73 H73        32.7051   18.9656    5.8839 H         1 UNK         0.0888 
     74 H74        34.1088   19.9236    5.4035 H         1 UNK         0.0888 
     75 H75        31.4511   21.9929    5.2343 H         1 UNK         0.3017 
     76 H76        30.2913   21.2102    2.7562 H         1 UNK         0.0873 
     77 H77        31.8982   23.8307    2.6486 H         1 UNK         0.0745 
     78 H78        32.6062   22.3353    2.1166 H         1 UNK         0.0745 
     79 H79        31.8296   24.1714   -1.2015 H         1 UNK         0.0705 
     80 H80        32.8980   24.2071    0.1787 H         1 UNK         0.0705 
     81 H81        30.1093   25.2590    1.8675 H         1 UNK         0.1334 
     82 H82        30.3115   29.4035    0.8812 H         1 UNK         0.1417 
     83 H83        32.5104   26.5483   -1.4445 H         1 UNK         0.1562 
     84 H84        32.8842   28.8893   -1.7977 H         1 UNK         0.0748 
     85 H85        32.1902   30.0983   -0.7612 H         1 UNK         0.0748 
     86 H86        29.5936   31.6270   -2.2043 H         1 UNK         0.0940 
     87 H87        29.9332   30.8175   -0.7219 H         1 UNK         0.0940 
     88 H88        27.6558   30.3828   -2.6790 H         1 UNK         0.0703 
     89 H89        28.2233   28.3625   -0.5439 H         1 UNK         0.3081 
     90 H90        26.4324   25.9490   -2.4739 H         1 UNK         0.0719 
     91 H91        29.3094   25.9234   -1.4688 H         1 UNK         0.0809 
     92 H92        28.3279   24.4926   -1.7750 H         1 UNK         0.0809 
     93 H93        28.7906   25.5505   -3.1013 H         1 UNK         0.0809 
     94 H94        27.1202   25.4260    0.0587 H         1 UNK         0.2990 
     95 H95        24.7615   27.1907    1.9454 H         1 UNK         0.0690 
     96 H96        23.4311   25.1119    2.1469 H         1 UNK         0.0788 
     97 H97        24.1900   24.4530    0.6982 H         1 UNK         0.0788 
     98 H98        23.1519   25.8663    0.5869 H         1 UNK         0.0788 
     99 H99        26.0775   26.1061    3.2781 H         1 UNK         0.2993 
    100 H100       27.8638   24.9019    4.0559 H         1 UNK         0.0949 
    101 H101       26.9751   22.9117    5.2934 H         1 UNK         0.0767 
    102 H102       25.6444   23.8550    4.6487 H         1 UNK         0.0767 
    103 H103       26.1282   22.3662    3.8471 H         1 UNK         0.0767 
    104 H104       28.6045   22.8923    2.1463 H         1 UNK         0.3013 
    105 H105       25.9630   29.3945   -0.4476 H         1 UNK         0.3121 
    106 H106       24.6058   30.0233    1.1309 H         1 UNK         0.0774 
    107 H107       24.0436   32.3607    1.6324 H         1 UNK         0.0815 
    108 H108       25.4345   32.9480    0.7419 H         1 UNK         0.0815 
    109 H109       24.1269   32.1257   -0.1058 H         1 UNK         0.0815 
    110 H110       27.5319   32.0750    1.6272 H         1 UNK         0.2987 
    111 H111       28.3356   30.5512    3.9521 H         1 UNK         0.0949 
    112 H112       27.4987   33.4852    4.3167 H         1 UNK         0.0806 
    113 H113       26.7210   32.0911    5.0657 H         1 UNK         0.0806 
    114 H114       28.3648   32.5222    5.5075 H         1 UNK         0.0806 
    115 H115       30.5634   30.6889    4.1861 H         1 UNK         0.3010 
    116 H116       32.1782   32.8656    3.3749 H         1 UNK         0.0829 
    117 H117       31.7213   31.8251    1.0579 H         1 UNK         0.0813 
    118 H118       33.4074   31.7617    1.5200 H         1 UNK         0.0813 
    119 H119       32.4177   30.3186    1.6577 H         1 UNK         0.0813 
    120 H120       34.5728   32.0425    3.5675 H         1 UNK         0.3038 
    121 H121       34.9915   30.8215    6.0705 H         1 UNK         0.0769 
    122 H122       36.9460   31.2187    3.7381 H         1 UNK         0.0811 
    123 H123       37.4023   30.8569    5.3967 H         1 UNK         0.0811 
    124 H124       36.6131   32.3793    5.0250 H         1 UNK         0.0811 
    125 H125       34.7492   29.3551    2.8960 H         1 UNK         0.3204 
    126 H126       35.8805   26.8075    3.3757 H         1 UNK         0.0748 
    127 H127       34.5090   26.1597    1.3642 H         1 UNK         0.0771 
    128 H128       33.6440   27.6851    1.4714 H         1 UNK         0.0771 
    129 H129       35.3701   27.6681    1.1056 H         1 UNK         0.0771 
    130 H130       32.8546   28.1288    4.5390 H         1 UNK         0.2980 
    131 H131       32.1166   25.4945    5.6761 H         1 UNK         0.0545 
    132 H132       33.7470   27.9745    6.7279 H         1 UNK         0.3459 
    133 H133       32.9458   28.2375    8.2584 H         1 UNK         0.3459 
    134 H134       29.7031   26.1605    5.5052 H         1 UNK         0.0616 
    135 H135       30.4903   25.8135    4.0039 H         1 UNK         0.0616 
    136 H136       28.4823   28.5095    2.2873 H         1 UNK         0.0634 
    137 H137       28.4698   26.8429    2.7805 H         1 UNK         0.0634 
@<TRIPOS>BOND
     1    1    2 1    
     2    1   72 1    
     3    1   73 1    
     4    1   74 1    
     5    2    3 2    
     6    2    4 am   BACKBONE|DICT|INTERRES
     7    4    5 1    
     8    4   75 1    
     9    5    6 1    
    10    5   35 1    
    11    5   76 1    
    12    6    7 1    
    13    6   77 1    
    14    6   78 1    
    15    7    8 1    
    16    8    9 1    
    17    8   79 1    
    18    8   80 1    
    19    9   10 ar   
    20    9   14 ar   
    21   10   11 ar   
    22   10   81 1    
    23   11   12 ar   
    24   11   71 1    
    25   12   13 ar   
    26   12   82 1    
    27   13   14 ar   
    28   13   15 1    
    29   14   83 1    
    30   15   16 1    
    31   15   84 1    
    32   15   85 1    
    33   16   17 1    
    34   17   18 1    
    35   17   86 1    
    36   17   87 1    
    37   18   19 1    
    38   18   37 1    
    39   18   88 1    
    40   19   20 am   BACKBONE|DICT|INTERRES
    41   19   89 1    
    42   20   21 2    
    43   20   22 1    
    44   22   23 1    
    45   22   24 1    
    46   22   90 1    
    47   23   91 1    
    48   23   92 1    
    49   23   93 1    
    50   24   25 am   BACKBONE|DICT|INTERRES
    51   24   94 1    
    52   25   26 2    
    53   25   27 1    
    54   27   28 1    
    55   27   29 1    
    56   27   95 1    
    57   28   96 1    
    58   28   97 1    
    59   28   98 1    
    60   29   30 am   BACKBONE|DICT|INTERRES
    61   29   99 1    
    62   30   31 2    
    63   30   32 1    
    64   32   33 1    
    65   32   34 1    
    66   32  100 1    
    67   33  101 1    
    68   33  102 1    
    69   33  103 1    
    70   34   35 am   BACKBONE|DICT|INTERRES
    71   34  104 1    
    72   35   36 2    
    73   37   38 2    
    74   37   39 am   BACKBONE|DICT|INTERRES
    75   39   40 1    
    76   39  105 1    
    77   40   41 1    
    78   40   42 1    
    79   40  106 1    
    80   41  107 1    
    81   41  108 1    
    82   41  109 1    
    83   42   43 2    
    84   42   44 am   BACKBONE|DICT|INTERRES
    85   44   45 1    
    86   44  110 1    
    87   45   46 1    
    88   45   47 1    
    89   45  111 1    
    90   46  112 1    
    91   46  113 1    
    92   46  114 1    
    93   47   48 2    
    94   47   49 am   BACKBONE|DICT|INTERRES
    95   49   50 1    
    96   49  115 1    
    97   50   51 1    
    98   50   52 1    
    99   50  116 1    
   100   51  117 1    
   101   51  118 1    
   102   51  119 1    
   103   52   53 2    
   104   52   54 am   BACKBONE|DICT|INTERRES
   105   54   55 1    
   106   54  120 1    
   107   55   56 1    
   108   55   57 1    
   109   55  121 1    
   110   56  122 1    
   111   56  123 1    
   112   56  124 1    
   113   57   58 2    
   114   57   59 am   BACKBONE|DICT|INTERRES
   115   59   60 1    
   116   59  125 1    
   117   60   61 1    
   118   60   62 1    
   119   60  126 1    
   120   61  127 1    
   121   61  128 1    
   122   61  129 1    
   123   62   63 2    
   124   62   64 am   BACKBONE|DICT|INTERRES
   125   64   65 1    
   126   64  130 1    
   127   65   66 1    
   128   65   69 1    
   129   65  131 1    
   130   66   67 am   BACKBONE|DICT|INTERRES
   131   66   68 2    
   132   67  132 1    
   133   67  133 1    
   134   69   70 1    
   135   69  134 1    
   136   69  135 1    
   137   70   71 1    
   138   71  136 1    
   139   71  137 1    
@<TRIPOS>SUBSTRUCTURE
     1 UNK         1 GROUP             0       ****    0 ROOT    
