@<TRIPOS>MOLECULE
3R136
137   139    1
SMALL
USER_CHARGES


@<TRIPOS>ATOM
      1 CA         27.3442   24.1868   -3.8054 C.3       0 UNK        -0.1979 
      2 C          27.1697   24.0706   -2.2993 C.2       0 UNK         0.4864 
      3 O          26.1280   24.4692   -1.7771 O.2       0 UNK        -0.5359 
      4 N          28.1693   23.5026   -1.6069 N.am      1 UNK        -0.4318 
      5 CA         28.2678   23.3677   -0.1434 C.3       1 UNK         0.0824 
      6 C6         29.5590   22.6231    0.2748 C.3       12 UNK        -0.0944 
      7 S7         31.0777   23.4776   -0.2677 S.3       12 UNK        -0.2672 
      8 C8         32.3108   22.7769    0.8777 C.3       12 UNK         0.0333 
      9 C9         32.6315   23.7201    2.0310 C.ar      12 UNK        -0.0807 
     10 C10        33.8880   24.3294    2.1134 C.ar      12 UNK        -0.0894 
     11 C11        34.2046   25.1686    3.1870 C.ar      12 UNK        -0.0804 
     12 C12        33.2427   25.4211    4.1693 C.ar      12 UNK        -0.0824 
     13 C13        31.9767   24.8325    4.0902 C.ar      12 UNK        -0.0762 
     14 C14        31.6871   23.9663    3.0315 C.ar      12 UNK        -0.0782 
     15 C15        30.9307   25.1261    5.1585 C.3       12 UNK         0.0230 
     16 S16        29.3117   25.6105    4.4689 S.3       12 UNK        -0.2608 
     17 C17        29.7210   27.1099    3.5107 C.3       12 UNK        -0.0989 
     18 CA         29.0628   27.1165    2.1112 C.3       5 UNK         0.0716 
     19 N          27.6006   26.9995    2.1902 N.am      5 UNK        -0.4135 
     20 C          26.7827   26.8399    1.1423 C.2       4 UNK         0.5031 
     21 O          27.1631   26.7609   -0.0262 O.2       4 UNK        -0.5229 
     22 CA         25.2830   26.8038    1.4439 C.3       4 UNK         0.0329 
     23 CB         24.6759   28.2121    1.2829 C.3       4 UNK        -0.2001 
     24 N          24.6394   25.8531    0.5388 N.am      4 UNK        -0.4303 
     25 C          23.4031   25.3602    0.6895 C.2       3 UNK         0.5044 
     26 O          22.6418   25.6776    1.6044 O.2       3 UNK        -0.5152 
     27 CA         22.9453   24.3138   -0.3356 C.3       3 UNK         0.0319 
     28 CB         22.7249   24.9453   -1.7211 C.3       3 UNK        -0.2001 
     29 N          23.9268   23.2341   -0.4264 N.am      3 UNK        -0.4354 
     30 C          23.9211   22.1404    0.3502 C.2       2 UNK         0.4964 
     31 O          23.0243   21.8757    1.1520 O.2       2 UNK        -0.5047 
     32 CA         25.1102   21.1686    0.2226 C.3       2 UNK         0.0288 
     33 CB         24.7733   20.0322   -0.7566 C.3       2 UNK        -0.2113 
     34 N          26.3543   21.8143   -0.2016 N.am      2 UNK        -0.4145 
     35 C          27.0438   22.7054    0.5268 C.2       1 UNK         0.5006 
     36 O          26.7440   23.0230    1.6785 O.2       1 UNK        -0.5103 
     37 C          29.4850   28.3629    1.3030 C.2       5 UNK         0.5055 
     38 O          30.2985   28.2452    0.3856 O.2       5 UNK        -0.5220 
     39 N          28.8737   29.5123    1.6336 N.am      6 UNK        -0.4450 
     40 CA         28.8899   30.8148    0.9517 C.3       6 UNK         0.0367 
     41 CB         28.2675   30.7074   -0.4536 C.3       6 UNK        -0.1929 
     42 C          30.2502   31.5330    0.8967 C.2       6 UNK         0.5070 
     43 O          30.3138   32.7167    1.2344 O.2       6 UNK        -0.5237 
     44 N          31.3029   30.8292    0.4637 N.am      7 UNK        -0.4739 
     45 CA         32.6790   31.3153    0.3448 C.3       7 UNK         0.0276 
     46 CB         33.5491   30.2145   -0.2849 C.3       7 UNK        -0.1927 
     47 C          33.2252   31.7335    1.7165 C.2       7 UNK         0.5013 
     48 O          33.4182   30.8672    2.5700 O.2       7 UNK        -0.5193 
     49 N          33.3912   33.0505    1.9194 N.am      8 UNK        -0.4253 
     50 CA         33.7249   33.7086    3.1919 C.3       8 UNK         0.0242 
     51 CB         35.2140   33.5029    3.5355 C.3       8 UNK        -0.2000 
     52 C          32.7739   33.2876    4.3316 C.2       8 UNK         0.4948 
     53 O          33.2296   32.9179    5.4183 O.2       8 UNK        -0.5275 
     54 N          31.4685   33.2725    4.0165 N.am      9 UNK        -0.4246 
     55 CA         30.3332   32.7661    4.7978 C.3       9 UNK         0.0261 
     56 CB         30.1737   33.5089    6.1394 C.3       9 UNK        -0.1959 
     57 C          30.3661   31.2403    4.9896 C.2       9 UNK         0.5033 
     58 O          29.4141   30.5621    4.6021 O.2       9 UNK        -0.5390 
     59 N          31.4605   30.7369    5.5655 N.am      10 UNK        -0.4215 
     60 CA         31.7384   29.3274    5.8186 C.3       10 UNK         0.0240 
     61 CB         30.9316   28.8311    7.0371 C.3       10 UNK        -0.1982 
     62 C          33.2526   29.1166    5.9564 C.2       10 UNK         0.4970 
     63 O          33.6991   28.5063    6.9290 O.2       10 UNK        -0.4916 
     64 N          34.0145   29.6437    4.9887 N.am      11 UNK        -0.4279 
     65 CA         35.4846   29.6274    4.9362 C.3       11 UNK         0.1003 
     66 C          36.1600   30.3872    6.1178 C.2       11 UNK         0.5709 
     67 N          35.5808   31.4854    6.5921 N.am      11 UNK        -0.7358 
     68 O          37.2223   30.0009    6.6007 O.2       11 UNK        -0.4999 
     69 C69        36.0620   28.2079    4.6706 C.3       12 UNK        -0.0954 
     70 S70        35.5712   27.5760    3.0286 S.3       12 UNK        -0.2268 
     71 C71        35.5949   25.7774    3.2998 C.3       12 UNK         0.0203 
     72 H72        26.5457   23.6509   -4.3176 H         1 UNK         0.0888 
     73 H73        27.2993   25.2334   -4.1052 H         1 UNK         0.0888 
     74 H74        28.2978   23.7782   -4.1394 H         1 UNK         0.0888 
     75 H75        28.9932   23.2017   -2.1082 H         1 UNK         0.3017 
     76 H76        28.3234   24.3808    0.2562 H         1 UNK         0.0873 
     77 H77        29.5693   21.6120   -0.1371 H         1 UNK         0.0745 
     78 H78        29.5916   22.5062    1.3584 H         1 UNK         0.0745 
     79 H79        31.9649   21.8193    1.2697 H         1 UNK         0.0705 
     80 H80        33.2149   22.5561    0.3083 H         1 UNK         0.0705 
     81 H81        34.6285   24.1358    1.3492 H         1 UNK         0.1334 
     82 H82        33.4860   26.0771    4.9944 H         1 UNK         0.1417 
     83 H83        30.7154   23.4977    2.9848 H         1 UNK         0.1562 
     84 H84        31.2741   25.9148    5.8283 H         1 UNK         0.0748 
     85 H85        30.7980   24.2355    5.7739 H         1 UNK         0.0748 
     86 H86        30.8039   27.1894    3.4041 H         1 UNK         0.0940 
     87 H87        29.3999   27.9738    4.0938 H         1 UNK         0.0940 
     88 H88        29.4283   26.2428    1.5664 H         1 UNK         0.0703 
     89 H89        27.2059   27.0353    3.1189 H         1 UNK         0.3081 
     90 H90        25.1379   26.4580    2.4697 H         1 UNK         0.0719 
     91 H91        24.7638   28.5698    0.2562 H         1 UNK         0.0809 
     92 H92        23.6204   28.2305    1.5541 H         1 UNK         0.0809 
     93 H93        25.1834   28.9339    1.9242 H         1 UNK         0.0809 
     94 H94        25.2200   25.5354   -0.2350 H         1 UNK         0.2990 
     95 H95        21.9867   23.9098   -0.0024 H         1 UNK         0.0690 
     96 H96        22.3629   24.2074   -2.4371 H         1 UNK         0.0788 
     97 H97        23.6388   25.3813   -2.1256 H         1 UNK         0.0788 
     98 H98        21.9802   25.7407   -1.6705 H         1 UNK         0.0788 
     99 H99        24.7353   23.4195   -1.0148 H         1 UNK         0.2993 
    100 H100       25.2798   20.7326    1.2097 H         1 UNK         0.0949 
    101 H101       23.8645   19.5112   -0.4515 H         1 UNK         0.0767 
    102 H102       24.6106   20.4059   -1.7685 H         1 UNK         0.0767 
    103 H103       25.5718   19.2909   -0.7951 H         1 UNK         0.0767 
    104 H104       26.6747   21.6169   -1.1384 H         1 UNK         0.3013 
    105 H105       28.2987   29.4941    2.4652 H         1 UNK         0.3121 
    106 H106       28.2345   31.4543    1.5455 H         1 UNK         0.0774 
    107 H107       28.2019   31.6877   -0.9274 H         1 UNK         0.0815 
    108 H108       28.8557   30.0673   -1.1120 H         1 UNK         0.0815 
    109 H109       27.2574   30.2998   -0.4088 H         1 UNK         0.0815 
    110 H110       31.1410   29.8435    0.2649 H         1 UNK         0.2987 
    111 H111       32.6787   32.1791   -0.3230 H         1 UNK         0.0949 
    112 H112       33.5528   29.3069    0.3211 H         1 UNK         0.0806 
    113 H113       33.1949   29.9494   -1.2811 H         1 UNK         0.0806 
    114 H114       34.5841   30.5440   -0.3841 H         1 UNK         0.0806 
    115 H115       33.1666   33.6747    1.1564 H         1 UNK         0.3010 
    116 H116       33.5654   34.7780    3.0454 H         1 UNK         0.0829 
    117 H117       35.8584   33.8856    2.7444 H         1 UNK         0.0813 
    118 H118       35.4827   34.0271    4.4536 H         1 UNK         0.0813 
    119 H119       35.4531   32.4513    3.6788 H         1 UNK         0.0813 
    120 H120       31.2313   33.4990    3.0563 H         1 UNK         0.3038 
    121 H121       29.4476   32.9849    4.1986 H         1 UNK         0.0769 
    122 H122       30.0772   34.5837    5.9861 H         1 UNK         0.0811 
    123 H123       31.0171   33.3420    6.8096 H         1 UNK         0.0811 
    124 H124       29.2765   33.1744    6.6617 H         1 UNK         0.0811 
    125 H125       32.2075   31.3950    5.7825 H         1 UNK         0.3204 
    126 H126       31.4388   28.7562    4.9427 H         1 UNK         0.0748 
    127 H127       29.8585   28.8968    6.8572 H         1 UNK         0.0771 
    128 H128       31.1540   27.7886    7.2644 H         1 UNK         0.0771 
    129 H129       31.1586   29.4149    7.9297 H         1 UNK         0.0771 
    130 H130       33.5789   30.1101    4.1937 H         1 UNK         0.2980 
    131 H131       35.7469   30.2249    4.0641 H         1 UNK         0.0545 
    132 H132       36.0187   31.9781    7.3534 H         1 UNK         0.3459 
    133 H133       34.7322   31.8548    6.1772 H         1 UNK         0.3459 
    134 H134       37.1528   28.2206    4.6910 H         1 UNK         0.0616 
    135 H135       35.7474   27.5158    5.4525 H         1 UNK         0.0616 
    136 H136       36.2677   25.3316    2.5659 H         1 UNK         0.0634 
    137 H137       36.0182   25.5379    4.2759 H         1 UNK         0.0634 
@<TRIPOS>BOND
     1    1    2 1    
     2    1   72 1    
     3    1   73 1    
     4    1   74 1    
     5    2    3 2    
     6    2    4 am   BACKBONE|DICT|INTERRES
     7    4    5 1    
     8    4   75 1    
     9    5    6 1    
    10    5   35 1    
    11    5   76 1    
    12    6    7 1    
    13    6   77 1    
    14    6   78 1    
    15    7    8 1    
    16    8    9 1    
    17    8   79 1    
    18    8   80 1    
    19    9   10 ar   
    20    9   14 ar   
    21   10   11 ar   
    22   10   81 1    
    23   11   12 ar   
    24   11   71 1    
    25   12   13 ar   
    26   12   82 1    
    27   13   14 ar   
    28   13   15 1    
    29   14   83 1    
    30   15   16 1    
    31   15   84 1    
    32   15   85 1    
    33   16   17 1    
    34   17   18 1    
    35   17   86 1    
    36   17   87 1    
    37   18   19 1    
    38   18   37 1    
    39   18   88 1    
    40   19   20 am   BACKBONE|DICT|INTERRES
    41   19   89 1    
    42   20   21 2    
    43   20   22 1    
    44   22   23 1    
    45   22   24 1    
    46   22   90 1    
    47   23   91 1    
    48   23   92 1    
    49   23   93 1    
    50   24   25 am   BACKBONE|DICT|INTERRES
    51   24   94 1    
    52   25   26 2    
    53   25   27 1    
    54   27   28 1    
    55   27   29 1    
    56   27   95 1    
    57   28   96 1    
    58   28   97 1    
    59   28   98 1    
    60   29   30 am   BACKBONE|DICT|INTERRES
    61   29   99 1    
    62   30   31 2    
    63   30   32 1    
    64   32   33 1    
    65   32   34 1    
    66   32  100 1    
    67   33  101 1    
    68   33  102 1    
    69   33  103 1    
    70   34   35 am   BACKBONE|DICT|INTERRES
    71   34  104 1    
    72   35   36 2    
    73   37   38 2    
    74   37   39 am   BACKBONE|DICT|INTERRES
    75   39   40 1    
    76   39  105 1    
    77   40   41 1    
    78   40   42 1    
    79   40  106 1    
    80   41  107 1    
    81   41  108 1    
    82   41  109 1    
    83   42   43 2    
    84   42   44 am   BACKBONE|DICT|INTERRES
    85   44   45 1    
    86   44  110 1    
    87   45   46 1    
    88   45   47 1    
    89   45  111 1    
    90   46  112 1    
    91   46  113 1    
    92   46  114 1    
    93   47   48 2    
    94   47   49 am   BACKBONE|DICT|INTERRES
    95   49   50 1    
    96   49  115 1    
    97   50   51 1    
    98   50   52 1    
    99   50  116 1    
   100   51  117 1    
   101   51  118 1    
   102   51  119 1    
   103   52   53 2    
   104   52   54 am   BACKBONE|DICT|INTERRES
   105   54   55 1    
   106   54  120 1    
   107   55   56 1    
   108   55   57 1    
   109   55  121 1    
   110   56  122 1    
   111   56  123 1    
   112   56  124 1    
   113   57   58 2    
   114   57   59 am   BACKBONE|DICT|INTERRES
   115   59   60 1    
   116   59  125 1    
   117   60   61 1    
   118   60   62 1    
   119   60  126 1    
   120   61  127 1    
   121   61  128 1    
   122   61  129 1    
   123   62   63 2    
   124   62   64 am   BACKBONE|DICT|INTERRES
   125   64   65 1    
   126   64  130 1    
   127   65   66 1    
   128   65   69 1    
   129   65  131 1    
   130   66   67 am   BACKBONE|DICT|INTERRES
   131   66   68 2    
   132   67  132 1    
   133   67  133 1    
   134   69   70 1    
   135   69  134 1    
   136   69  135 1    
   137   70   71 1    
   138   71  136 1    
   139   71  137 1    
@<TRIPOS>SUBSTRUCTURE
     1 UNK         1 GROUP             0       ****    0 ROOT    
