@<TRIPOS>MOLECULE
3R136
137   139    1
SMALL
USER_CHARGES


@<TRIPOS>ATOM
      1 CA         28.1831   20.0287    6.0191 C.3       0 UNK        -0.1979 
      2 C          27.9931   20.9555    4.8273 C.2       0 UNK         0.4864 
      3 O          27.0107   21.6975    4.7802 O.2       0 UNK        -0.5359 
      4 N          28.9201   20.9139    3.8612 N.am      1 UNK        -0.4318 
      5 CA         28.9362   21.7842    2.6838 C.3       1 UNK         0.0824 
      6 C6         29.8635   21.2155    1.5843 C.3       12 UNK        -0.0944 
      7 S7         29.5618   21.9701   -0.0488 S.3       12 UNK        -0.2672 
      8 C8         31.2550   22.0831   -0.7063 C.3       12 UNK         0.0333 
      9 C9         31.8607   23.4667   -0.5139 C.ar      12 UNK        -0.0807 
     10 C10        32.5816   23.7838    0.6436 C.ar      12 UNK        -0.0894 
     11 C11        33.2046   25.0312    0.7723 C.ar      12 UNK        -0.0804 
     12 C12        33.1006   25.9577   -0.2710 C.ar      12 UNK        -0.0824 
     13 C13        32.3511   25.6688   -1.4142 C.ar      12 UNK        -0.0762 
     14 C14        31.7368   24.4191   -1.5299 C.ar      12 UNK        -0.0782 
     15 C15        32.1999   26.7017   -2.5267 C.3       12 UNK         0.0230 
     16 S16        31.6094   28.3192   -1.9215 S.3       12 UNK        -0.2608 
     17 C17        30.0784   27.8615   -1.0388 C.3       12 UNK        -0.0989 
     18 CA         28.8027   28.4720   -1.6699 C.3       5 UNK         0.0716 
     19 N          27.6397   27.6815   -1.2799 N.am      5 UNK        -0.4135 
     20 C          26.6283   27.3249   -2.0794 C.2       4 UNK         0.5031 
     21 O          26.5409   27.6611   -3.2615 O.2       4 UNK        -0.5229 
     22 CA         25.5397   26.4084   -1.4836 C.3       4 UNK         0.0329 
     23 CB         25.7024   24.9739   -2.0144 C.3       4 UNK        -0.2001 
     24 N          25.5409   26.3706   -0.0187 N.am      4 UNK        -0.4303 
     25 C          25.0937   27.3583    0.7670 C.2       3 UNK         0.5044 
     26 O          24.5442   28.3735    0.3386 O.2       3 UNK        -0.5152 
     27 CA         25.2904   27.1988    2.2871 C.3       3 UNK         0.0319 
     28 CB         23.9871   26.7140    2.9429 C.3       3 UNK        -0.2001 
     29 N          26.3929   26.3252    2.7184 N.am      3 UNK        -0.4354 
     30 C          27.6867   26.4598    2.3877 C.2       2 UNK         0.4964 
     31 O          28.1015   27.2165    1.5140 O.2       2 UNK        -0.5047 
     32 CA         28.6826   25.5946    3.1596 C.3       2 UNK         0.0288 
     33 CB         28.6048   25.8601    4.6775 C.3       2 UNK        -0.2113 
     34 N          28.4611   24.1841    2.8574 N.am      2 UNK        -0.4145 
     35 C          29.3467   23.2101    3.0981 C.2       1 UNK         0.5006 
     36 O          30.4478   23.3879    3.6246 O.2       1 UNK        -0.5103 
     37 C          28.6226   29.9317   -1.2175 C.2       5 UNK         0.5055 
     38 O          27.8971   30.2042   -0.2591 O.2       5 UNK        -0.5220 
     39 N          29.3628   30.8427   -1.8625 N.am      6 UNK        -0.4450 
     40 CA         29.5519   32.2223   -1.4013 C.3       6 UNK         0.0367 
     41 CB         30.1545   33.0601   -2.5401 C.3       6 UNK        -0.1929 
     42 C          30.4396   32.3062   -0.1428 C.2       6 UNK         0.5070 
     43 O          30.3333   33.2727    0.6110 O.2       6 UNK        -0.5237 
     44 N          31.2827   31.2863    0.0750 N.am      7 UNK        -0.4739 
     45 CA         32.1945   31.1544    1.2143 C.3       7 UNK         0.0276 
     46 CB         33.4024   30.3048    0.7819 C.3       7 UNK        -0.1927 
     47 C          31.5340   30.5644    2.4758 C.2       7 UNK         0.5013 
     48 O          32.2557   30.2250    3.4143 O.2       7 UNK        -0.5193 
     49 N          30.1957   30.4521    2.5006 N.am      8 UNK        -0.4253 
     50 CA         29.3865   29.8512    3.5712 C.3       8 UNK         0.0242 
     51 CB         27.8963   30.0883    3.2790 C.3       8 UNK        -0.2000 
     52 C          29.7128   30.3323    4.9962 C.2       8 UNK         0.4948 
     53 O          29.6777   29.5261    5.9249 O.2       8 UNK        -0.5275 
     54 N          30.0594   31.6194    5.1381 N.am      9 UNK        -0.4246 
     55 CA         30.4812   32.2385    6.3977 C.3       9 UNK         0.0261 
     56 CB         30.5706   33.7611    6.2049 C.3       9 UNK        -0.1959 
     57 C          31.8089   31.6888    6.9560 C.2       9 UNK         0.5033 
     58 O          32.0099   31.7455    8.1703 O.2       9 UNK        -0.5390 
     59 N          32.6834   31.1768    6.0794 N.am      10 UNK        -0.4215 
     60 CA         33.9431   30.5283    6.4424 C.3       10 UNK         0.0240 
     61 CB         35.0327   30.9186    5.4290 C.3       10 UNK        -0.1982 
     62 C          33.7772   29.0030    6.4976 C.2       10 UNK         0.4970 
     63 O          34.2883   28.3772    7.4272 O.2       10 UNK        -0.4916 
     64 N          33.0807   28.4352    5.5042 N.am      11 UNK        -0.4279 
     65 CA         32.8341   26.9911    5.3735 C.3       11 UNK         0.1003 
     66 C          31.8805   26.4036    6.4503 C.2       11 UNK         0.5709 
     67 N          30.9319   27.1621    6.9858 N.am      11 UNK        -0.7358 
     68 O          32.0197   25.2414    6.8223 O.2       11 UNK        -0.4999 
     69 C69        32.3698   26.6229    3.9409 C.3       12 UNK        -0.0954 
     70 S70        33.6621   26.9988    2.7106 S.3       12 UNK        -0.2268 
     71 C71        34.0412   25.3582    2.0056 C.3       12 UNK         0.0203 
     72 H72        27.3462   19.3318    6.0897 H         1 UNK         0.0888 
     73 H73        29.1043   19.4480    5.9419 H         1 UNK         0.0888 
     74 H74        28.2241   20.6095    6.9422 H         1 UNK         0.0888 
     75 H75        29.7210   20.3081    3.9693 H         1 UNK         0.3017 
     76 H76        27.9191   21.8083    2.2857 H         1 UNK         0.0873 
     77 H77        29.6908   20.1440    1.4708 H         1 UNK         0.0745 
     78 H78        30.9122   21.3196    1.8689 H         1 UNK         0.0745 
     79 H79        31.8935   21.3221   -0.2552 H         1 UNK         0.0705 
     80 H80        31.2233   21.8427   -1.7702 H         1 UNK         0.0705 
     81 H81        32.6755   23.0516    1.4339 H         1 UNK         0.1334 
     82 H82        33.5921   26.9170   -0.1872 H         1 UNK         0.1417 
     83 H83        31.1696   24.1793   -2.4192 H         1 UNK         0.1562 
     84 H84        31.5104   26.3477   -3.2946 H         1 UNK         0.0748 
     85 H85        33.1646   26.8386   -3.0167 H         1 UNK         0.0748 
     86 H86        30.1812   28.1350    0.0140 H         1 UNK         0.0940 
     87 H87        29.9889   26.7749   -1.0350 H         1 UNK         0.0940 
     88 H88        28.8996   28.4527   -2.7577 H         1 UNK         0.0703 
     89 H89        27.6043   27.4419   -0.2922 H         1 UNK         0.3081 
     90 H90        24.5727   26.7893   -1.8195 H         1 UNK         0.0719 
     91 H91        26.6534   24.5350   -1.7090 H         1 UNK         0.0809 
     92 H92        24.9018   24.3250   -1.6587 H         1 UNK         0.0809 
     93 H93        25.6708   24.9549   -3.1047 H         1 UNK         0.0809 
     94 H94        25.9696   25.5691    0.4190 H         1 UNK         0.2990 
     95 H95        25.5098   28.1951    2.6754 H         1 UNK         0.0690 
     96 H96        24.0595   26.7274    4.0305 H         1 UNK         0.0788 
     97 H97        23.7339   25.6991    2.6338 H         1 UNK         0.0788 
     98 H98        23.1481   27.3561    2.6704 H         1 UNK         0.0788 
     99 H99        26.1616   25.6617    3.4438 H         1 UNK         0.2993 
    100 H100       29.6801   25.8647    2.8070 H         1 UNK         0.0949 
    101 H101       28.7141   26.9222    4.8999 H         1 UNK         0.0767 
    102 H102       27.6578   25.5303    5.1048 H         1 UNK         0.0767 
    103 H103       29.3988   25.3384    5.2103 H         1 UNK         0.0767 
    104 H104       27.5892   23.9527    2.4024 H         1 UNK         0.3013 
    105 H105       29.9395   30.5388   -2.6352 H         1 UNK         0.3121 
    106 H106       28.5754   32.6402   -1.1464 H         1 UNK         0.0774 
    107 H107       31.1341   32.6878   -2.8427 H         1 UNK         0.0815 
    108 H108       30.2820   34.0992   -2.2332 H         1 UNK         0.0815 
    109 H109       29.5081   33.0606   -3.4179 H         1 UNK         0.0815 
    110 H110       31.2978   30.5288   -0.5944 H         1 UNK         0.2987 
    111 H111       32.5612   32.1464    1.4864 H         1 UNK         0.0949 
    112 H112       33.1107   29.2780    0.5598 H         1 UNK         0.0806 
    113 H113       33.8856   30.7173   -0.1038 H         1 UNK         0.0806 
    114 H114       34.1565   30.2617    1.5691 H         1 UNK         0.0806 
    115 H115       29.6890   30.7563    1.6810 H         1 UNK         0.3010 
    116 H116       29.5767   28.7776    3.5394 H         1 UNK         0.0829 
    117 H117       27.6072   29.6781    2.3126 H         1 UNK         0.0813 
    118 H118       27.2695   29.6077    4.0316 H         1 UNK         0.0813 
    119 H119       27.6487   31.1504    3.2749 H         1 UNK         0.0813 
    120 H120       30.0624   32.2058    4.3160 H         1 UNK         0.3038 
    121 H121       29.7082   32.0330    7.1414 H         1 UNK         0.0769 
    122 H122       31.3134   34.0304    5.4529 H         1 UNK         0.0811 
    123 H123       30.8548   34.2559    7.1348 H         1 UNK         0.0811 
    124 H124       29.6122   34.1803    5.8978 H         1 UNK         0.0811 
    125 H125       32.4150   31.1101    5.1014 H         1 UNK         0.3204 
    126 H126       34.2675   30.8673    7.4287 H         1 UNK         0.0748 
    127 H127       35.9873   30.4582    5.6874 H         1 UNK         0.0771 
    128 H128       34.7818   30.6009    4.4161 H         1 UNK         0.0771 
    129 H129       35.1873   31.9974    5.4117 H         1 UNK         0.0771 
    130 H130       32.7313   29.0178    4.7483 H         1 UNK         0.2980 
    131 H131       33.7936   26.4951    5.5343 H         1 UNK         0.0545 
    132 H132       30.3354   26.7672    7.6936 H         1 UNK         0.3459 
    133 H133       30.7407   28.0969    6.6388 H         1 UNK         0.3459 
    134 H134       32.1046   25.5666    3.8737 H         1 UNK         0.0616 
    135 H135       31.4722   27.1834    3.6775 H         1 UNK         0.0616 
    136 H136       35.0919   25.3478    1.7141 H         1 UNK         0.0634 
    137 H137       33.9309   24.5919    2.7742 H         1 UNK         0.0634 
@<TRIPOS>BOND
     1    1    2 1    
     2    1   72 1    
     3    1   73 1    
     4    1   74 1    
     5    2    3 2    
     6    2    4 am   BACKBONE|DICT|INTERRES
     7    4    5 1    
     8    4   75 1    
     9    5    6 1    
    10    5   35 1    
    11    5   76 1    
    12    6    7 1    
    13    6   77 1    
    14    6   78 1    
    15    7    8 1    
    16    8    9 1    
    17    8   79 1    
    18    8   80 1    
    19    9   10 ar   
    20    9   14 ar   
    21   10   11 ar   
    22   10   81 1    
    23   11   12 ar   
    24   11   71 1    
    25   12   13 ar   
    26   12   82 1    
    27   13   14 ar   
    28   13   15 1    
    29   14   83 1    
    30   15   16 1    
    31   15   84 1    
    32   15   85 1    
    33   16   17 1    
    34   17   18 1    
    35   17   86 1    
    36   17   87 1    
    37   18   19 1    
    38   18   37 1    
    39   18   88 1    
    40   19   20 am   BACKBONE|DICT|INTERRES
    41   19   89 1    
    42   20   21 2    
    43   20   22 1    
    44   22   23 1    
    45   22   24 1    
    46   22   90 1    
    47   23   91 1    
    48   23   92 1    
    49   23   93 1    
    50   24   25 am   BACKBONE|DICT|INTERRES
    51   24   94 1    
    52   25   26 2    
    53   25   27 1    
    54   27   28 1    
    55   27   29 1    
    56   27   95 1    
    57   28   96 1    
    58   28   97 1    
    59   28   98 1    
    60   29   30 am   BACKBONE|DICT|INTERRES
    61   29   99 1    
    62   30   31 2    
    63   30   32 1    
    64   32   33 1    
    65   32   34 1    
    66   32  100 1    
    67   33  101 1    
    68   33  102 1    
    69   33  103 1    
    70   34   35 am   BACKBONE|DICT|INTERRES
    71   34  104 1    
    72   35   36 2    
    73   37   38 2    
    74   37   39 am   BACKBONE|DICT|INTERRES
    75   39   40 1    
    76   39  105 1    
    77   40   41 1    
    78   40   42 1    
    79   40  106 1    
    80   41  107 1    
    81   41  108 1    
    82   41  109 1    
    83   42   43 2    
    84   42   44 am   BACKBONE|DICT|INTERRES
    85   44   45 1    
    86   44  110 1    
    87   45   46 1    
    88   45   47 1    
    89   45  111 1    
    90   46  112 1    
    91   46  113 1    
    92   46  114 1    
    93   47   48 2    
    94   47   49 am   BACKBONE|DICT|INTERRES
    95   49   50 1    
    96   49  115 1    
    97   50   51 1    
    98   50   52 1    
    99   50  116 1    
   100   51  117 1    
   101   51  118 1    
   102   51  119 1    
   103   52   53 2    
   104   52   54 am   BACKBONE|DICT|INTERRES
   105   54   55 1    
   106   54  120 1    
   107   55   56 1    
   108   55   57 1    
   109   55  121 1    
   110   56  122 1    
   111   56  123 1    
   112   56  124 1    
   113   57   58 2    
   114   57   59 am   BACKBONE|DICT|INTERRES
   115   59   60 1    
   116   59  125 1    
   117   60   61 1    
   118   60   62 1    
   119   60  126 1    
   120   61  127 1    
   121   61  128 1    
   122   61  129 1    
   123   62   63 2    
   124   62   64 am   BACKBONE|DICT|INTERRES
   125   64   65 1    
   126   64  130 1    
   127   65   66 1    
   128   65   69 1    
   129   65  131 1    
   130   66   67 am   BACKBONE|DICT|INTERRES
   131   66   68 2    
   132   67  132 1    
   133   67  133 1    
   134   69   70 1    
   135   69  134 1    
   136   69  135 1    
   137   70   71 1    
   138   71  136 1    
   139   71  137 1    
@<TRIPOS>SUBSTRUCTURE
     1 UNK         1 GROUP             0       ****    0 ROOT    
