@<TRIPOS>MOLECULE
3R136
137   139    1
SMALL
USER_CHARGES


@<TRIPOS>ATOM
      1 CA         30.6881   26.1222   -5.6070 C.3       0 UNK        -0.1979 
      2 C          30.3959   25.5791   -4.2158 C.2       0 UNK         0.4864 
      3 O          30.6003   24.3889   -3.9733 O.2       0 UNK        -0.5359 
      4 N          29.9246   26.4452   -3.3071 N.am      1 UNK        -0.4318 
      5 CA         29.5333   26.1400   -1.9276 C.3       1 UNK         0.0824 
      6 C6         30.7210   25.6556   -1.0467 C.3       12 UNK        -0.0944 
      7 S7         30.3258   25.7196    0.7312 S.3       12 UNK        -0.2672 
      8 C8         30.7611   24.0358    1.2767 C.3       12 UNK         0.0333 
      9 C9         30.4778   23.8977    2.7619 C.ar      12 UNK        -0.0807 
     10 C10        31.3384   24.4919    3.6874 C.ar      12 UNK        -0.0894 
     11 C11        31.0097   24.5217    5.0443 C.ar      12 UNK        -0.0804 
     12 C12        29.8156   23.9383    5.4760 C.ar      12 UNK        -0.0824 
     13 C13        28.9496   23.3349    4.5584 C.ar      12 UNK        -0.0762 
     14 C14        29.3075   23.2757    3.2072 C.ar      12 UNK        -0.0782 
     15 C15        27.5781   22.8503    5.0087 C.3       12 UNK         0.0230 
     16 S16        26.2283   23.8844    4.3313 S.3       12 UNK        -0.2608 
     17 C17        26.7569   25.5856    4.7545 C.3       12 UNK        -0.0989 
     18 CA         27.5054   26.2689    3.5764 C.3       5 UNK         0.0716 
     19 N          26.6739   26.4345    2.3776 N.am      5 UNK        -0.4135 
     20 C          25.7395   27.3726    2.1543 C.2       4 UNK         0.5031 
     21 O          25.4357   28.2616    2.9501 O.2       4 UNK        -0.5229 
     22 CA         25.0082   27.3133    0.8003 C.3       4 UNK         0.0329 
     23 CB         25.7622   28.1500   -0.2458 C.3       4 UNK        -0.2001 
     24 N          24.8273   25.9468    0.3027 N.am      4 UNK        -0.4303 
     25 C          24.0456   25.0280    0.8921 C.2       3 UNK         0.5044 
     26 O          23.3193   25.2761    1.8556 O.2       3 UNK        -0.5152 
     27 CA         24.0579   23.5911    0.3306 C.3       3 UNK         0.0319 
     28 CB         22.7206   23.2712   -0.3587 C.3       3 UNK        -0.2001 
     29 N          25.1508   23.2821   -0.5979 N.am      3 UNK        -0.4354 
     30 C          26.4597   23.3142   -0.3139 C.2       2 UNK         0.4964 
     31 O          26.9134   23.6717    0.7740 O.2       2 UNK        -0.5047 
     32 CA         27.4380   22.9130   -1.4359 C.3       2 UNK         0.0288 
     33 CB         26.7649   22.5709   -2.7861 C.3       2 UNK        -0.2113 
     34 N          28.4730   23.9337   -1.6224 N.am      2 UNK        -0.4145 
     35 C          28.2848   25.2316   -1.9053 C.2       1 UNK         0.5006 
     36 O          27.1809   25.7331   -2.1314 O.2       1 UNK        -0.5103 
     37 C          28.2417   27.5638    3.9754 C.2       5 UNK         0.5055 
     38 O          28.0000   28.1179    5.0501 O.2       5 UNK        -0.5220 
     39 N          29.1036   28.0362    3.0673 N.am      6 UNK        -0.4450 
     40 CA         29.8225   29.3009    3.1634 C.3       6 UNK         0.0367 
     41 CB         28.8819   30.4462    2.7359 C.3       6 UNK        -0.1929 
     42 C          31.0818   29.1966    2.2935 C.2       6 UNK         0.5070 
     43 O          31.1266   29.7943    1.2172 O.2       6 UNK        -0.5237 
     44 N          32.0511   28.3954    2.7655 N.am      7 UNK        -0.4739 
     45 CA         33.2590   27.9306    2.0598 C.3       7 UNK         0.0276 
     46 CB         34.2361   27.3060    3.0719 C.3       7 UNK        -0.1927 
     47 C          33.9940   28.9873    1.2161 C.2       7 UNK         0.5013 
     48 O          34.2705   28.7414    0.0413 O.2       7 UNK        -0.5193 
     49 N          34.2733   30.1421    1.8283 N.am      8 UNK        -0.4253 
     50 CA         34.8480   31.3207    1.1811 C.3       8 UNK         0.0242 
     51 CB         36.3447   31.4184    1.5338 C.3       8 UNK        -0.2000 
     52 C          34.0408   32.5519    1.6133 C.2       8 UNK         0.4948 
     53 O          34.5987   33.4769    2.2035 O.2       8 UNK        -0.5275 
     54 N          32.7168   32.4899    1.3935 N.am      9 UNK        -0.4246 
     55 CA         31.6673   33.4107    1.8727 C.3       9 UNK         0.0261 
     56 CB         31.9353   34.8733    1.4615 C.3       9 UNK        -0.1959 
     57 C          31.3638   33.2787    3.3813 C.2       9 UNK         0.5033 
     58 O          30.3855   33.8548    3.8578 O.2       9 UNK        -0.5390 
     59 N          32.1615   32.4715    4.0815 N.am      10 UNK        -0.4215 
     60 CA         32.0105   31.9757    5.4394 C.3       10 UNK         0.0240 
     61 CB         32.4389   33.0530    6.4520 C.3       10 UNK        -0.1982 
     62 C          32.8973   30.7260    5.5370 C.2       10 UNK         0.4970 
     63 O          33.7687   30.5327    4.6814 O.2       10 UNK        -0.4916 
     64 N          32.6627   29.9039    6.5631 N.am      11 UNK        -0.4279 
     65 CA         33.4698   28.7083    6.8680 C.3       11 UNK         0.1003 
     66 C          34.7138   28.9977    7.7589 C.2       11 UNK         0.5709 
     67 N          34.9255   30.2180    8.2385 N.am      11 UNK        -0.7358 
     68 O          35.5140   28.0991    8.0075 O.2       11 UNK        -0.4999 
     69 C69        32.5968   27.5693    7.4546 C.3       12 UNK        -0.0954 
     70 S70        31.3709   26.9665    6.2468 S.3       12 UNK        -0.2268 
     71 C71        31.9093   25.2420    6.0337 C.3       12 UNK         0.0203 
     72 H72        30.0836   25.5994   -6.3478 H         1 UNK         0.0888 
     73 H73        30.4720   27.1877   -5.6839 H         1 UNK         0.0888 
     74 H74        31.7382   25.9707   -5.8554 H         1 UNK         0.0888 
     75 H75        29.7591   27.4011   -3.5909 H         1 UNK         0.3017 
     76 H76        29.2046   27.0954   -1.5144 H         1 UNK         0.0873 
     77 H77        31.0636   24.6597   -1.3307 H         1 UNK         0.0745 
     78 H78        31.5783   26.3127   -1.2021 H         1 UNK         0.0745 
     79 H79        30.1889   23.3020    0.7076 H         1 UNK         0.0705 
     80 H80        31.8164   23.8437    1.0771 H         1 UNK         0.0705 
     81 H81        32.2363   24.9778    3.3367 H         1 UNK         0.1334 
     82 H82        29.5387   24.0018    6.5197 H         1 UNK         0.1417 
     83 H83        28.6204   22.8426    2.4933 H         1 UNK         0.1562 
     84 H84        27.5064   22.8439    6.0974 H         1 UNK         0.0748 
     85 H85        27.4335   21.8189    4.6844 H         1 UNK         0.0748 
     86 H86        27.3835   25.5472    5.6474 H         1 UNK         0.0940 
     87 H87        25.8764   26.1682    5.0306 H         1 UNK         0.0940 
     88 H88        28.3033   25.6090    3.2585 H         1 UNK         0.0703 
     89 H89        26.7985   25.7147    1.6753 H         1 UNK         0.3081 
     90 H90        24.0175   27.7522    0.9374 H         1 UNK         0.0719 
     91 H91        26.7787   27.7862   -0.3985 H         1 UNK         0.0809 
     92 H92        25.2528   28.1384   -1.2095 H         1 UNK         0.0809 
     93 H93        25.8358   29.1916    0.0701 H         1 UNK         0.0809 
     94 H94        25.3884   25.6687   -0.4924 H         1 UNK         0.2990 
     95 H95        24.1671   22.9240    1.1883 H         1 UNK         0.0690 
     96 H96        22.6708   22.2264   -0.6662 H         1 UNK         0.0788 
     97 H97        22.5650   23.8913   -1.2425 H         1 UNK         0.0788 
     98 H98        21.8801   23.4470    0.3143 H         1 UNK         0.0788 
     99 H99        24.8803   23.0066   -1.5310 H         1 UNK         0.2993 
    100 H100       27.9478   22.0158   -1.0815 H         1 UNK         0.0949 
    101 H101       26.2083   23.4141   -3.1970 H         1 UNK         0.0767 
    102 H102       27.5104   22.2821   -3.5274 H         1 UNK         0.0767 
    103 H103       26.0777   21.7295   -2.6867 H         1 UNK         0.0767 
    104 H104       29.4224   23.6273   -1.4688 H         1 UNK         0.3013 
    105 H105       29.2820   27.4947    2.2297 H         1 UNK         0.3121 
    106 H106       30.1400   29.4686    4.1950 H         1 UNK         0.0774 
    107 H107       28.4942   30.2936    1.7278 H         1 UNK         0.0815 
    108 H108       29.3941   31.4049    2.7447 H         1 UNK         0.0815 
    109 H109       28.0289   30.5321    3.4093 H         1 UNK         0.0815 
    110 H110       31.8872   27.9635    3.6644 H         1 UNK         0.2987 
    111 H111       32.9318   27.1450    1.3763 H         1 UNK         0.0949 
    112 H112       34.6707   28.0582    3.7305 H         1 UNK         0.0806 
    113 H113       33.7565   26.5591    3.7006 H         1 UNK         0.0806 
    114 H114       35.0629   26.8140    2.5580 H         1 UNK         0.0806 
    115 H115       34.0406   30.2316    2.8146 H         1 UNK         0.3010 
    116 H116       34.7525   31.2479    0.0955 H         1 UNK         0.0829 
    117 H117       36.8008   32.2928    1.0678 H         1 UNK         0.0813 
    118 H118       36.4998   31.5004    2.6104 H         1 UNK         0.0813 
    119 H119       36.8907   30.5424    1.1832 H         1 UNK         0.0813 
    120 H120       32.3609   31.6453    0.9561 H         1 UNK         0.3038 
    121 H121       30.7571   33.0948    1.3607 H         1 UNK         0.0769 
    122 H122       32.7749   35.3059    2.0057 H         1 UNK         0.0811 
    123 H123       31.0657   35.4980    1.6696 H         1 UNK         0.0811 
    124 H124       32.1451   34.9553    0.3952 H         1 UNK         0.0811 
    125 H125       32.9571   32.0634    3.6077 H         1 UNK         0.3204 
    126 H126       30.9692   31.6915    5.6042 H         1 UNK         0.0748 
    127 H127       32.3254   32.6992    7.4772 H         1 UNK         0.0771 
    128 H128       33.4823   33.3408    6.3156 H         1 UNK         0.0771 
    129 H129       31.8309   33.9526    6.3546 H         1 UNK         0.0771 
    130 H130       31.9308   30.1235    7.2229 H         1 UNK         0.2980 
    131 H131       33.8869   28.3292    5.9343 H         1 UNK         0.0545 
    132 H132       34.2857   30.9683    8.0378 H         1 UNK         0.3459 
    133 H133       35.7399   30.3875    8.8076 H         1 UNK         0.3459 
    134 H134       32.0686   27.9107    8.3463 H         1 UNK         0.0616 
    135 H135       33.2159   26.7290    7.7740 H         1 UNK         0.0616 
    136 H136       32.9453   25.2215    5.6920 H         1 UNK         0.0634 
    137 H137       31.8874   24.7318    6.9980 H         1 UNK         0.0634 
@<TRIPOS>BOND
     1    1    2 1    
     2    1   72 1    
     3    1   73 1    
     4    1   74 1    
     5    2    3 2    
     6    2    4 am   BACKBONE|DICT|INTERRES
     7    4    5 1    
     8    4   75 1    
     9    5    6 1    
    10    5   35 1    
    11    5   76 1    
    12    6    7 1    
    13    6   77 1    
    14    6   78 1    
    15    7    8 1    
    16    8    9 1    
    17    8   79 1    
    18    8   80 1    
    19    9   10 ar   
    20    9   14 ar   
    21   10   11 ar   
    22   10   81 1    
    23   11   12 ar   
    24   11   71 1    
    25   12   13 ar   
    26   12   82 1    
    27   13   14 ar   
    28   13   15 1    
    29   14   83 1    
    30   15   16 1    
    31   15   84 1    
    32   15   85 1    
    33   16   17 1    
    34   17   18 1    
    35   17   86 1    
    36   17   87 1    
    37   18   19 1    
    38   18   37 1    
    39   18   88 1    
    40   19   20 am   BACKBONE|DICT|INTERRES
    41   19   89 1    
    42   20   21 2    
    43   20   22 1    
    44   22   23 1    
    45   22   24 1    
    46   22   90 1    
    47   23   91 1    
    48   23   92 1    
    49   23   93 1    
    50   24   25 am   BACKBONE|DICT|INTERRES
    51   24   94 1    
    52   25   26 2    
    53   25   27 1    
    54   27   28 1    
    55   27   29 1    
    56   27   95 1    
    57   28   96 1    
    58   28   97 1    
    59   28   98 1    
    60   29   30 am   BACKBONE|DICT|INTERRES
    61   29   99 1    
    62   30   31 2    
    63   30   32 1    
    64   32   33 1    
    65   32   34 1    
    66   32  100 1    
    67   33  101 1    
    68   33  102 1    
    69   33  103 1    
    70   34   35 am   BACKBONE|DICT|INTERRES
    71   34  104 1    
    72   35   36 2    
    73   37   38 2    
    74   37   39 am   BACKBONE|DICT|INTERRES
    75   39   40 1    
    76   39  105 1    
    77   40   41 1    
    78   40   42 1    
    79   40  106 1    
    80   41  107 1    
    81   41  108 1    
    82   41  109 1    
    83   42   43 2    
    84   42   44 am   BACKBONE|DICT|INTERRES
    85   44   45 1    
    86   44  110 1    
    87   45   46 1    
    88   45   47 1    
    89   45  111 1    
    90   46  112 1    
    91   46  113 1    
    92   46  114 1    
    93   47   48 2    
    94   47   49 am   BACKBONE|DICT|INTERRES
    95   49   50 1    
    96   49  115 1    
    97   50   51 1    
    98   50   52 1    
    99   50  116 1    
   100   51  117 1    
   101   51  118 1    
   102   51  119 1    
   103   52   53 2    
   104   52   54 am   BACKBONE|DICT|INTERRES
   105   54   55 1    
   106   54  120 1    
   107   55   56 1    
   108   55   57 1    
   109   55  121 1    
   110   56  122 1    
   111   56  123 1    
   112   56  124 1    
   113   57   58 2    
   114   57   59 am   BACKBONE|DICT|INTERRES
   115   59   60 1    
   116   59  125 1    
   117   60   61 1    
   118   60   62 1    
   119   60  126 1    
   120   61  127 1    
   121   61  128 1    
   122   61  129 1    
   123   62   63 2    
   124   62   64 am   BACKBONE|DICT|INTERRES
   125   64   65 1    
   126   64  130 1    
   127   65   66 1    
   128   65   69 1    
   129   65  131 1    
   130   66   67 am   BACKBONE|DICT|INTERRES
   131   66   68 2    
   132   67  132 1    
   133   67  133 1    
   134   69   70 1    
   135   69  134 1    
   136   69  135 1    
   137   70   71 1    
   138   71  136 1    
   139   71  137 1    
@<TRIPOS>SUBSTRUCTURE
     1 UNK         1 GROUP             0       ****    0 ROOT    
