@<TRIPOS>MOLECULE
3R136
137   139    1
SMALL
USER_CHARGES


@<TRIPOS>ATOM
      1 CA         24.0066   25.9675    3.3097 C.3       0 UNK        -0.1979 
      2 C          24.7448   24.9350    2.4707 C.2       0 UNK         0.4864 
      3 O          24.1026   24.1090    1.8197 O.2       0 UNK        -0.5359 
      4 N          26.0837   24.9760    2.4742 N.am      1 UNK        -0.4318 
      5 CA         26.9289   24.1458    1.6130 C.3       1 UNK         0.0824 
      6 C6         28.3249   23.8862    2.2353 C.3       12 UNK        -0.0944 
      7 S7         29.2629   22.5941    1.3412 S.3       12 UNK        -0.2672 
      8 C8         30.1769   21.7454    2.6703 C.3       12 UNK         0.0333 
      9 C9         31.2330   22.6433    3.2998 C.ar      12 UNK        -0.0807 
     10 C10        32.4702   22.8377    2.6747 C.ar      12 UNK        -0.0894 
     11 C11        33.4278   23.6911    3.2367 C.ar      12 UNK        -0.0804 
     12 C12        33.1404   24.3361    4.4449 C.ar      12 UNK        -0.0824 
     13 C13        31.8974   24.1738    5.0589 C.ar      12 UNK        -0.0762 
     14 C14        30.9601   23.3007    4.5009 C.ar      12 UNK        -0.0782 
     15 C15        31.5186   25.0390    6.2524 C.3       12 UNK         0.0230 
     16 S16        31.2245   26.7739    5.7496 S.3       12 UNK        -0.2608 
     17 C17        30.3545   26.5537    4.1585 C.3       12 UNK        -0.0989 
     18 CA         29.5387   27.7855    3.7176 C.3       5 UNK         0.0716 
     19 N          29.3979   27.8512    2.2644 N.am      5 UNK        -0.4135 
     20 C          30.2643   28.4350    1.4308 C.2       4 UNK         0.5031 
     21 O          31.3299   28.9352    1.7901 O.2       4 UNK        -0.5229 
     22 CA         29.8458   28.4653   -0.0470 C.3       4 UNK         0.0329 
     23 CB         30.5384   29.5806   -0.8631 C.3       4 UNK        -0.2001 
     24 N          29.9761   27.1360   -0.6556 N.am      4 UNK        -0.4303 
     25 C          31.0663   26.5399   -1.1693 C.2       3 UNK         0.5044 
     26 O          32.1689   27.0743   -1.2717 O.2       3 UNK        -0.5152 
     27 CA         30.9291   25.0867   -1.6705 C.3       3 UNK         0.0319 
     28 CB         31.8085   24.1471   -0.8284 C.3       3 UNK        -0.2001 
     29 N          29.5547   24.5830   -1.6635 N.am      3 UNK        -0.4354 
     30 C          28.5902   24.9501   -2.5208 C.2       2 UNK         0.4964 
     31 O          28.7830   25.6788   -3.4940 O.2       2 UNK        -0.5047 
     32 CA         27.1606   24.4552   -2.2243 C.3       2 UNK         0.0288 
     33 CB         26.7884   23.2937   -3.1603 C.3       2 UNK        -0.2113 
     34 N          26.9496   24.0364   -0.8332 N.am      2 UNK        -0.4145 
     35 C          27.0565   24.8314    0.2416 C.2       1 UNK         0.5006 
     36 O          27.3261   26.0358    0.1854 O.2       1 UNK        -0.5103 
     37 C          28.1290   27.7657    4.3235 C.2       5 UNK         0.5055 
     38 O          27.1904   27.3329    3.6477 O.2       5 UNK        -0.5220 
     39 N          28.0026   28.2302    5.5736 N.am      6 UNK        -0.4450 
     40 CA         26.7854   28.3757    6.3895 C.3       6 UNK         0.0367 
     41 CB         26.0648   27.0297    6.6000 C.3       6 UNK        -0.1929 
     42 C          25.8281   29.4659    5.8738 C.2       6 UNK         0.5070 
     43 O          25.4272   30.3370    6.6450 O.2       6 UNK        -0.5237 
     44 N          25.5311   29.4363    4.5702 N.am      7 UNK        -0.4739 
     45 CA         24.8747   30.5121    3.8201 C.3       7 UNK         0.0276 
     46 CB         24.1420   29.8911    2.6185 C.3       7 UNK        -0.1927 
     47 C          25.8752   31.5903    3.3498 C.2       7 UNK         0.5013 
     48 O          25.4568   32.6043    2.7902 O.2       7 UNK        -0.5193 
     49 N          27.1708   31.3452    3.5713 N.am      8 UNK        -0.4253 
     50 CA         28.3196   32.1756    3.2310 C.3       8 UNK         0.0242 
     51 CB         28.6179   32.0694    1.7211 C.3       8 UNK        -0.2000 
     52 C          29.4945   31.7138    4.1112 C.2       8 UNK         0.4948 
     53 O          29.2752   30.9770    5.0774 O.2       8 UNK        -0.5275 
     54 N          30.7163   32.1308    3.7710 N.am      9 UNK        -0.4246 
     55 CA         31.9562   31.7273    4.4295 C.3       9 UNK         0.0261 
     56 CB         32.2393   32.6622    5.6208 C.3       9 UNK        -0.1959 
     57 C          33.0947   31.7634    3.4023 C.2       9 UNK         0.5033 
     58 O          32.9249   32.3619    2.3358 O.2       9 UNK        -0.5390 
     59 N          34.2303   31.1456    3.7644 N.am      10 UNK        -0.4215 
     60 CA         35.4463   30.9644    2.9584 C.3       10 UNK         0.0240 
     61 CB         36.1108   32.3196    2.6289 C.3       10 UNK        -0.1982 
     62 C          35.1633   30.1062    1.7118 C.2       10 UNK         0.4970 
     63 O          35.1806   30.6146    0.5887 O.2       10 UNK        -0.4916 
     64 N          34.8656   28.8245    1.9599 N.am      11 UNK        -0.4279 
     65 CA         34.4686   27.8299    0.9549 C.3       11 UNK         0.1003 
     66 C          35.4971   27.5998   -0.1887 C.2       11 UNK         0.5709 
     67 N          35.0202   27.2209   -1.3658 N.am      11 UNK        -0.7358 
     68 O          36.7082   27.7268   -0.0126 O.2       11 UNK        -0.4999 
     69 C69        34.0222   26.4990    1.6195 C.3       12 UNK        -0.0954 
     70 S70        35.3347   25.6527    2.5674 S.3       12 UNK        -0.2268 
     71 C71        34.7601   23.9178    2.5246 C.3       12 UNK         0.0203 
     72 H72        24.6120   26.8559    3.4774 H         1 UNK         0.0888 
     73 H73        23.0928   26.2815    2.8059 H         1 UNK         0.0888 
     74 H74        23.7353   25.5443    4.2763 H         1 UNK         0.0888 
     75 H75        26.5499   25.7384    2.9617 H         1 UNK         0.3017 
     76 H76        26.4394   23.1778    1.4818 H         1 UNK         0.0873 
     77 H77        28.9228   24.7982    2.2525 H         1 UNK         0.0745 
     78 H78        28.2057   23.5738    3.2735 H         1 UNK         0.0745 
     79 H79        29.4739   21.3843    3.4226 H         1 UNK         0.0705 
     80 H80        30.6575   20.8588    2.2541 H         1 UNK         0.0705 
     81 H81        32.6774   22.3364    1.7390 H         1 UNK         0.1334 
     82 H82        33.8584   25.0173    4.8802 H         1 UNK         0.1417 
     83 H83        29.9945   23.1771    4.9720 H         1 UNK         0.1562 
     84 H84        32.3120   25.0086    7.0005 H         1 UNK         0.0748 
     85 H85        30.6206   24.6540    6.7382 H         1 UNK         0.0748 
     86 H86        29.7147   25.6732    4.2157 H         1 UNK         0.0940 
     87 H87        31.1153   26.3218    3.4116 H         1 UNK         0.0940 
     88 H88        30.0442   28.6936    4.0502 H         1 UNK         0.0703 
     89 H89        28.5175   27.4914    1.9132 H         1 UNK         0.3081 
     90 H90        28.7776   28.6888   -0.0658 H         1 UNK         0.0719 
     91 H91        31.6257   29.5148   -0.8164 H         1 UNK         0.0809 
     92 H92        30.2434   29.5484   -1.9117 H         1 UNK         0.0809 
     93 H93        30.2693   30.5647   -0.4798 H         1 UNK         0.0809 
     94 H94        29.1283   26.5807   -0.6073 H         1 UNK         0.2990 
     95 H95        31.2931   25.0620   -2.6997 H         1 UNK         0.0690 
     96 H96        31.6944   23.1070   -1.1342 H         1 UNK         0.0788 
     97 H97        31.5665   24.2162    0.2327 H         1 UNK         0.0788 
     98 H98        32.8638   24.3996   -0.9383 H         1 UNK         0.0788 
     99 H99        29.3091   23.9648   -0.9024 H         1 UNK         0.2993 
    100 H100       26.4853   25.2902   -2.4237 H         1 UNK         0.0949 
    101 H101       27.4196   22.4203   -2.9908 H         1 UNK         0.0767 
    102 H102       25.7499   22.9908   -3.0245 H         1 UNK         0.0767 
    103 H103       26.9048   23.5818   -4.2063 H         1 UNK         0.0767 
    104 H104       26.7471   23.0571   -0.6890 H         1 UNK         0.3013 
    105 H105       28.8391   28.6040    6.0048 H         1 UNK         0.3121 
    106 H106       27.1321   28.7097    7.3690 H         1 UNK         0.0774 
    107 H107       25.2147   27.1469    7.2732 H         1 UNK         0.0815 
    108 H108       25.6826   26.6131    5.6696 H         1 UNK         0.0815 
    109 H109       26.7315   26.2917    7.0457 H         1 UNK         0.0815 
    110 H110       25.9310   28.6747    4.0275 H         1 UNK         0.2987 
    111 H111       24.1387   31.0044    4.4595 H         1 UNK         0.0949 
    112 H112       24.8314   29.3797    1.9452 H         1 UNK         0.0806 
    113 H113       23.3912   29.1703    2.9423 H         1 UNK         0.0806 
    114 H114       23.6240   30.6552    2.0372 H         1 UNK         0.0806 
    115 H115       27.4125   30.5425    4.1377 H         1 UNK         0.3010 
    116 H116       28.0968   33.2127    3.4897 H         1 UNK         0.0829 
    117 H117       27.7590   32.3758    1.1240 H         1 UNK         0.0813 
    118 H118       29.4495   32.7096    1.4256 H         1 UNK         0.0813 
    119 H119       28.8681   31.0480    1.4386 H         1 UNK         0.0813 
    120 H120       30.8597   32.6680    2.9242 H         1 UNK         0.3038 
    121 H121       31.8592   30.6980    4.7834 H         1 UNK         0.0769 
    122 H122       31.4324   32.6255    6.3530 H         1 UNK         0.0811 
    123 H123       32.3517   33.6983    5.2990 H         1 UNK         0.0811 
    124 H124       33.1560   32.3793    6.1392 H         1 UNK         0.0811 
    125 H125       34.2464   30.6954    4.6694 H         1 UNK         0.3204 
    126 H126       36.1506   30.4034    3.5752 H         1 UNK         0.0748 
    127 H127       36.3304   32.8835    3.5353 H         1 UNK         0.0771 
    128 H128       37.0544   32.1694    2.1029 H         1 UNK         0.0771 
    129 H129       35.4830   32.9428    1.9914 H         1 UNK         0.0771 
    130 H130       34.8937   28.4888    2.9102 H         1 UNK         0.2980 
    131 H131       33.5855   28.2627    0.4845 H         1 UNK         0.0545 
    132 H132       35.6493   27.0492   -2.1332 H         1 UNK         0.3459 
    133 H133       34.0139   27.1281   -1.4899 H         1 UNK         0.3459 
    134 H134       33.1885   26.6910    2.2955 H         1 UNK         0.0616 
    135 H135       33.6334   25.8164    0.8636 H         1 UNK         0.0616 
    136 H136       35.5163   23.2892    2.9960 H         1 UNK         0.0634 
    137 H137       34.6976   23.6002    1.4825 H         1 UNK         0.0634 
@<TRIPOS>BOND
     1    1    2 1    
     2    1   72 1    
     3    1   73 1    
     4    1   74 1    
     5    2    3 2    
     6    2    4 am   BACKBONE|DICT|INTERRES
     7    4    5 1    
     8    4   75 1    
     9    5    6 1    
    10    5   35 1    
    11    5   76 1    
    12    6    7 1    
    13    6   77 1    
    14    6   78 1    
    15    7    8 1    
    16    8    9 1    
    17    8   79 1    
    18    8   80 1    
    19    9   10 ar   
    20    9   14 ar   
    21   10   11 ar   
    22   10   81 1    
    23   11   12 ar   
    24   11   71 1    
    25   12   13 ar   
    26   12   82 1    
    27   13   14 ar   
    28   13   15 1    
    29   14   83 1    
    30   15   16 1    
    31   15   84 1    
    32   15   85 1    
    33   16   17 1    
    34   17   18 1    
    35   17   86 1    
    36   17   87 1    
    37   18   19 1    
    38   18   37 1    
    39   18   88 1    
    40   19   20 am   BACKBONE|DICT|INTERRES
    41   19   89 1    
    42   20   21 2    
    43   20   22 1    
    44   22   23 1    
    45   22   24 1    
    46   22   90 1    
    47   23   91 1    
    48   23   92 1    
    49   23   93 1    
    50   24   25 am   BACKBONE|DICT|INTERRES
    51   24   94 1    
    52   25   26 2    
    53   25   27 1    
    54   27   28 1    
    55   27   29 1    
    56   27   95 1    
    57   28   96 1    
    58   28   97 1    
    59   28   98 1    
    60   29   30 am   BACKBONE|DICT|INTERRES
    61   29   99 1    
    62   30   31 2    
    63   30   32 1    
    64   32   33 1    
    65   32   34 1    
    66   32  100 1    
    67   33  101 1    
    68   33  102 1    
    69   33  103 1    
    70   34   35 am   BACKBONE|DICT|INTERRES
    71   34  104 1    
    72   35   36 2    
    73   37   38 2    
    74   37   39 am   BACKBONE|DICT|INTERRES
    75   39   40 1    
    76   39  105 1    
    77   40   41 1    
    78   40   42 1    
    79   40  106 1    
    80   41  107 1    
    81   41  108 1    
    82   41  109 1    
    83   42   43 2    
    84   42   44 am   BACKBONE|DICT|INTERRES
    85   44   45 1    
    86   44  110 1    
    87   45   46 1    
    88   45   47 1    
    89   45  111 1    
    90   46  112 1    
    91   46  113 1    
    92   46  114 1    
    93   47   48 2    
    94   47   49 am   BACKBONE|DICT|INTERRES
    95   49   50 1    
    96   49  115 1    
    97   50   51 1    
    98   50   52 1    
    99   50  116 1    
   100   51  117 1    
   101   51  118 1    
   102   51  119 1    
   103   52   53 2    
   104   52   54 am   BACKBONE|DICT|INTERRES
   105   54   55 1    
   106   54  120 1    
   107   55   56 1    
   108   55   57 1    
   109   55  121 1    
   110   56  122 1    
   111   56  123 1    
   112   56  124 1    
   113   57   58 2    
   114   57   59 am   BACKBONE|DICT|INTERRES
   115   59   60 1    
   116   59  125 1    
   117   60   61 1    
   118   60   62 1    
   119   60  126 1    
   120   61  127 1    
   121   61  128 1    
   122   61  129 1    
   123   62   63 2    
   124   62   64 am   BACKBONE|DICT|INTERRES
   125   64   65 1    
   126   64  130 1    
   127   65   66 1    
   128   65   69 1    
   129   65  131 1    
   130   66   67 am   BACKBONE|DICT|INTERRES
   131   66   68 2    
   132   67  132 1    
   133   67  133 1    
   134   69   70 1    
   135   69  134 1    
   136   69  135 1    
   137   70   71 1    
   138   71  136 1    
   139   71  137 1    
@<TRIPOS>SUBSTRUCTURE
     1 UNK         1 GROUP             0       ****    0 ROOT    
