@<TRIPOS>MOLECULE
3R136
137   139    1
SMALL
USER_CHARGES


@<TRIPOS>ATOM
      1 CA         36.5078   25.7454   -0.7457 C.3       0 UNK        -0.1979 
      2 C          35.2538   25.1423   -0.1307 C.2       0 UNK         0.4864 
      3 O          35.3431   24.4492    0.8831 O.2       0 UNK        -0.5359 
      4 N          34.0873   25.4101   -0.7268 N.am      1 UNK        -0.4318 
      5 CA         32.7787   24.9643   -0.2564 C.3       1 UNK         0.0824 
      6 C6         32.3867   23.5980   -0.8718 C.3       12 UNK        -0.0944 
      7 S7         30.8579   22.8775   -0.1859 S.3       12 UNK        -0.2672 
      8 C8         31.3798   22.3904    1.4892 C.3       12 UNK         0.0333 
      9 C9         30.5639   23.1268    2.5417 C.ar      12 UNK        -0.0807 
     10 C10        31.0811   24.2501    3.1958 C.ar      12 UNK        -0.0894 
     11 C11        30.3187   24.9229    4.1557 C.ar      12 UNK        -0.0804 
     12 C12        29.0390   24.4566    4.4741 C.ar      12 UNK        -0.0824 
     13 C13        28.5193   23.3247    3.8393 C.ar      12 UNK        -0.0762 
     14 C14        29.2836   22.6702    2.8691 C.ar      12 UNK        -0.0782 
     15 C15        27.1505   22.7796    4.2209 C.3       12 UNK         0.0230 
     16 S16        25.8429   23.3523    3.0917 S.3       12 UNK        -0.2608 
     17 C17        25.5127   25.0384    3.7111 C.3       12 UNK        -0.0989 
     18 CA         25.9776   26.1480    2.7269 C.3       5 UNK         0.0716 
     19 N          25.4122   26.0123    1.3774 N.am      5 UNK        -0.4135 
     20 C          24.1191   26.1202    1.0284 C.2       4 UNK         0.5031 
     21 O          23.1998   26.2170    1.8430 O.2       4 UNK        -0.5229 
     22 CA         23.7940   26.1832   -0.4819 C.3       4 UNK         0.0329 
     23 CB         22.6127   27.1330   -0.7751 C.3       4 UNK        -0.2001 
     24 N          24.9397   26.5270   -1.3383 N.am      4 UNK        -0.4303 
     25 C          25.7148   27.6190   -1.2626 C.2       3 UNK         0.5044 
     26 O          25.5656   28.5309   -0.4427 O.2       3 UNK        -0.5152 
     27 CA         26.9273   27.6464   -2.2062 C.3       3 UNK         0.0319 
     28 CB         26.8102   28.8022   -3.2121 C.3       3 UNK        -0.2001 
     29 N          28.1735   27.7784   -1.4482 N.am      3 UNK        -0.4354 
     30 C          28.5939   26.9227   -0.5057 C.2       2 UNK         0.4964 
     31 O          28.0156   25.8720   -0.2170 O.2       2 UNK        -0.5047 
     32 CA         29.8243   27.3482    0.3005 C.3       2 UNK         0.0288 
     33 CB         29.4186   27.7097    1.7369 C.3       2 UNK        -0.2113 
     34 N          30.8069   26.2725    0.3498 N.am      2 UNK        -0.4145 
     35 C          31.7750   26.0894   -0.5545 C.2       1 UNK         0.5006 
     36 O          31.9215   26.7875   -1.5622 O.2       1 UNK        -0.5103 
     37 C          25.7851   27.5701    3.3204 C.2       5 UNK         0.5055 
     38 O          25.9404   27.7384    4.5313 O.2       5 UNK        -0.5220 
     39 N          25.4370   28.5621    2.4847 N.am      6 UNK        -0.4450 
     40 CA         25.0333   29.9067    2.9031 C.3       6 UNK         0.0367 
     41 CB         23.7148   30.2632    2.1962 C.3       6 UNK        -0.1929 
     42 C          26.0976   30.9692    2.5956 C.2       6 UNK         0.5070 
     43 O          26.1729   31.9650    3.3170 O.2       6 UNK        -0.5237 
     44 N          26.8827   30.7636    1.5299 N.am      7 UNK        -0.4739 
     45 CA         27.9660   31.6593    1.1118 C.3       7 UNK         0.0276 
     46 CB         28.3784   31.2879   -0.3219 C.3       7 UNK        -0.1927 
     47 C          29.1848   31.6106    2.0548 C.2       7 UNK         0.5013 
     48 O          29.2971   30.7076    2.8866 O.2       7 UNK        -0.5193 
     49 N          30.1038   32.5688    1.8798 N.am      8 UNK        -0.4253 
     50 CA         31.4213   32.5578    2.5188 C.3       8 UNK         0.0242 
     51 CB         32.0449   33.9604    2.4300 C.3       8 UNK        -0.2000 
     52 C          32.3279   31.5146    1.8436 C.2       8 UNK         0.4948 
     53 O          32.3465   31.4376    0.6124 O.2       8 UNK        -0.5275 
     54 N          33.0674   30.7513    2.6535 N.am      9 UNK        -0.4246 
     55 CA         33.9907   29.6951    2.2422 C.3       9 UNK         0.0261 
     56 CB         33.2242   28.4895    1.6504 C.3       9 UNK        -0.1959 
     57 C          34.8505   29.3099    3.4565 C.2       9 UNK         0.5033 
     58 O          34.9437   30.0900    4.4091 O.2       9 UNK        -0.5390 
     59 N          35.4323   28.1019    3.4229 N.am      10 UNK        -0.4215 
     60 CA         36.3021   27.5147    4.4516 C.3       10 UNK         0.0240 
     61 CB         36.7533   26.1221    3.9793 C.3       10 UNK        -0.1982 
     62 C          35.6985   27.4293    5.8689 C.2       10 UNK         0.4970 
     63 O          36.4589   27.3332    6.8332 O.2       10 UNK        -0.4916 
     64 N          34.3644   27.4848    5.9773 N.am      11 UNK        -0.4279 
     65 CA         33.6303   27.6237    7.2446 C.3       11 UNK         0.1003 
     66 C          33.8495   28.9875    7.9668 C.2       11 UNK         0.5709 
     67 N          34.3413   30.0278    7.3018 N.am      11 UNK        -0.7358 
     68 O          33.5696   29.0996    9.1580 O.2       11 UNK        -0.4999 
     69 C69        32.1132   27.3515    7.0686 C.3       12 UNK        -0.0954 
     70 S70        31.7474   25.7022    6.3813 S.3       12 UNK        -0.2268 
     71 C71        30.8746   26.1538    4.8525 C.3       12 UNK         0.0203 
     72 H72        37.1929   24.9544   -1.0497 H         1 UNK         0.0888 
     73 H73        36.2808   26.3528   -1.6217 H         1 UNK         0.0888 
     74 H74        37.0172   26.3763   -0.0178 H         1 UNK         0.0888 
     75 H75        34.0455   26.0268   -1.5293 H         1 UNK         0.3017 
     76 H76        32.8318   24.8600    0.8275 H         1 UNK         0.0873 
     77 H77        32.2675   23.6890   -1.9531 H         1 UNK         0.0745 
     78 H78        33.1924   22.8771   -0.7223 H         1 UNK         0.0745 
     79 H79        32.4461   22.5721    1.6328 H         1 UNK         0.0705 
     80 H80        31.2409   21.3142    1.6024 H         1 UNK         0.0705 
     81 H81        32.0794   24.5980    2.9711 H         1 UNK         0.1334 
     82 H82        28.4550   24.9679    5.2272 H         1 UNK         0.1417 
     83 H83        28.8819   21.7988    2.3695 H         1 UNK         0.1562 
     84 H84        26.9001   23.0433    5.2496 H         1 UNK         0.0748 
     85 H85        27.1767   21.6892    4.1932 H         1 UNK         0.0748 
     86 H86        25.9979   25.1587    4.6808 H         1 UNK         0.0940 
     87 H87        24.4430   25.1244    3.9083 H         1 UNK         0.0940 
     88 H88        27.0524   26.0278    2.6005 H         1 UNK         0.0703 
     89 H89        26.1024   25.9078    0.6409 H         1 UNK         0.3081 
     90 H90        23.4903   25.1746   -0.7659 H         1 UNK         0.0719 
     91 H91        22.8246   28.1525   -0.4506 H         1 UNK         0.0809 
     92 H92        22.3805   27.1615   -1.8396 H         1 UNK         0.0809 
     93 H93        21.7084   26.8092   -0.2583 H         1 UNK         0.0809 
     94 H94        25.1874   25.8239   -2.0216 H         1 UNK         0.2990 
     95 H95        26.9754   26.7083   -2.7632 H         1 UNK         0.0690 
     96 H96        27.6562   28.8201   -3.8994 H         1 UNK         0.0788 
     97 H97        26.7604   29.7707   -2.7137 H         1 UNK         0.0788 
     98 H98        25.9065   28.7021   -3.8149 H         1 UNK         0.0788 
     99 H99        28.7088   28.6159   -1.6205 H         1 UNK         0.2993 
    100 H100       30.2708   28.2320   -0.1610 H         1 UNK         0.0949 
    101 H101       30.2321   28.2049    2.2655 H         1 UNK         0.0767 
    102 H102       28.5672   28.3905    1.7488 H         1 UNK         0.0767 
    103 H103       29.1401   26.8285    2.3123 H         1 UNK         0.0767 
    104 H104       30.6819   25.5892    1.0836 H         1 UNK         0.3013 
    105 H105       25.3679   28.3663    1.4897 H         1 UNK         0.3121 
    106 H106       24.8517   29.9292    3.9798 H         1 UNK         0.0774 
    107 H107       23.3643   31.2516    2.4966 H         1 UNK         0.0815 
    108 H108       23.8274   30.2713    1.1111 H         1 UNK         0.0815 
    109 H109       22.9281   29.5502    2.4445 H         1 UNK         0.0815 
    110 H110       26.7312   29.9341    0.9722 H         1 UNK         0.2987 
    111 H111       27.5800   32.6813    1.1121 H         1 UNK         0.0949 
    112 H112       28.8281   30.2972   -0.3610 H         1 UNK         0.0806 
    113 H113       27.5228   31.3019   -0.9969 H         1 UNK         0.0806 
    114 H114       29.1117   31.9907   -0.7193 H         1 UNK         0.0806 
    115 H115       29.9643   33.2528    1.1505 H         1 UNK         0.3010 
    116 H116       31.2973   32.2998    3.5732 H         1 UNK         0.0829 
    117 H117       31.4178   34.7057    2.9196 H         1 UNK         0.0813 
    118 H118       33.0191   33.9850    2.9201 H         1 UNK         0.0813 
    119 H119       32.1933   34.2727    1.3953 H         1 UNK         0.0813 
    120 H120       33.0686   30.9261    3.6514 H         1 UNK         0.3038 
    121 H121       34.6611   30.1024    1.4829 H         1 UNK         0.0769 
    122 H122       32.6156   27.9899    2.4035 H         1 UNK         0.0811 
    123 H123       33.9036   27.7507    1.2262 H         1 UNK         0.0811 
    124 H124       32.5624   28.7934    0.8401 H         1 UNK         0.0811 
    125 H125       35.2849   27.5339    2.6020 H         1 UNK         0.3204 
    126 H126       37.1847   28.1532    4.5251 H         1 UNK         0.0748 
    127 H127       37.4272   25.6610    4.7030 H         1 UNK         0.0771 
    128 H128       35.9067   25.4468    3.8464 H         1 UNK         0.0771 
    129 H129       37.2898   26.1761    3.0316 H         1 UNK         0.0771 
    130 H130       33.8154   27.5543    5.1361 H         1 UNK         0.2980 
    131 H131       34.0214   26.8613    7.9210 H         1 UNK         0.0545 
    132 H132       34.4794   30.8990    7.7881 H         1 UNK         0.3459 
    133 H133       34.5752   29.9596    6.3159 H         1 UNK         0.3459 
    134 H134       31.6631   28.1216    6.4393 H         1 UNK         0.0616 
    135 H135       31.6027   27.4148    8.0314 H         1 UNK         0.0616 
    136 H136       30.0623   26.8445    5.0856 H         1 UNK         0.0634 
    137 H137       31.5562   26.6888    4.1905 H         1 UNK         0.0634 
@<TRIPOS>BOND
     1    1    2 1    
     2    1   72 1    
     3    1   73 1    
     4    1   74 1    
     5    2    3 2    
     6    2    4 am   BACKBONE|DICT|INTERRES
     7    4    5 1    
     8    4   75 1    
     9    5    6 1    
    10    5   35 1    
    11    5   76 1    
    12    6    7 1    
    13    6   77 1    
    14    6   78 1    
    15    7    8 1    
    16    8    9 1    
    17    8   79 1    
    18    8   80 1    
    19    9   10 ar   
    20    9   14 ar   
    21   10   11 ar   
    22   10   81 1    
    23   11   12 ar   
    24   11   71 1    
    25   12   13 ar   
    26   12   82 1    
    27   13   14 ar   
    28   13   15 1    
    29   14   83 1    
    30   15   16 1    
    31   15   84 1    
    32   15   85 1    
    33   16   17 1    
    34   17   18 1    
    35   17   86 1    
    36   17   87 1    
    37   18   19 1    
    38   18   37 1    
    39   18   88 1    
    40   19   20 am   BACKBONE|DICT|INTERRES
    41   19   89 1    
    42   20   21 2    
    43   20   22 1    
    44   22   23 1    
    45   22   24 1    
    46   22   90 1    
    47   23   91 1    
    48   23   92 1    
    49   23   93 1    
    50   24   25 am   BACKBONE|DICT|INTERRES
    51   24   94 1    
    52   25   26 2    
    53   25   27 1    
    54   27   28 1    
    55   27   29 1    
    56   27   95 1    
    57   28   96 1    
    58   28   97 1    
    59   28   98 1    
    60   29   30 am   BACKBONE|DICT|INTERRES
    61   29   99 1    
    62   30   31 2    
    63   30   32 1    
    64   32   33 1    
    65   32   34 1    
    66   32  100 1    
    67   33  101 1    
    68   33  102 1    
    69   33  103 1    
    70   34   35 am   BACKBONE|DICT|INTERRES
    71   34  104 1    
    72   35   36 2    
    73   37   38 2    
    74   37   39 am   BACKBONE|DICT|INTERRES
    75   39   40 1    
    76   39  105 1    
    77   40   41 1    
    78   40   42 1    
    79   40  106 1    
    80   41  107 1    
    81   41  108 1    
    82   41  109 1    
    83   42   43 2    
    84   42   44 am   BACKBONE|DICT|INTERRES
    85   44   45 1    
    86   44  110 1    
    87   45   46 1    
    88   45   47 1    
    89   45  111 1    
    90   46  112 1    
    91   46  113 1    
    92   46  114 1    
    93   47   48 2    
    94   47   49 am   BACKBONE|DICT|INTERRES
    95   49   50 1    
    96   49  115 1    
    97   50   51 1    
    98   50   52 1    
    99   50  116 1    
   100   51  117 1    
   101   51  118 1    
   102   51  119 1    
   103   52   53 2    
   104   52   54 am   BACKBONE|DICT|INTERRES
   105   54   55 1    
   106   54  120 1    
   107   55   56 1    
   108   55   57 1    
   109   55  121 1    
   110   56  122 1    
   111   56  123 1    
   112   56  124 1    
   113   57   58 2    
   114   57   59 am   BACKBONE|DICT|INTERRES
   115   59   60 1    
   116   59  125 1    
   117   60   61 1    
   118   60   62 1    
   119   60  126 1    
   120   61  127 1    
   121   61  128 1    
   122   61  129 1    
   123   62   63 2    
   124   62   64 am   BACKBONE|DICT|INTERRES
   125   64   65 1    
   126   64  130 1    
   127   65   66 1    
   128   65   69 1    
   129   65  131 1    
   130   66   67 am   BACKBONE|DICT|INTERRES
   131   66   68 2    
   132   67  132 1    
   133   67  133 1    
   134   69   70 1    
   135   69  134 1    
   136   69  135 1    
   137   70   71 1    
   138   71  136 1    
   139   71  137 1    
@<TRIPOS>SUBSTRUCTURE
     1 UNK         1 GROUP             0       ****    0 ROOT    
