@<TRIPOS>MOLECULE
3R136
137   139    1
SMALL
USER_CHARGES


@<TRIPOS>ATOM
      1 CA         31.0034   18.7065    3.3658 C.3       0 UNK        -0.1979 
      2 C          30.5514   20.1004    2.9555 C.2       0 UNK         0.4864 
      3 O          30.8355   20.5287    1.8361 O.2       0 UNK        -0.5359 
      4 N          29.8575   20.8102    3.8554 N.am      1 UNK        -0.4318 
      5 CA         29.2975   22.1433    3.6176 C.3       1 UNK         0.0824 
      6 C6         28.9574   22.8388    4.9640 C.3       12 UNK        -0.0944 
      7 S7         28.4162   24.5789    4.8183 S.3       12 UNK        -0.2672 
      8 C8         29.9922   25.4904    4.9158 C.3       12 UNK         0.0333 
      9 C9         30.9019   25.1759    3.7382 C.ar      12 UNK        -0.0807 
     10 C10        32.1472   24.5762    3.9444 C.ar      12 UNK        -0.0894 
     11 C11        32.9644   24.2486    2.8583 C.ar      12 UNK        -0.0804 
     12 C12        32.5216   24.5110    1.5585 C.ar      12 UNK        -0.0824 
     13 C13        31.2866   25.1288    1.3415 C.ar      12 UNK        -0.0762 
     14 C14        30.4852   25.4641    2.4360 C.ar      12 UNK        -0.0782 
     15 C15        30.8218   25.4260   -0.0760 C.3       12 UNK         0.0230 
     16 S16        31.4855   27.0083   -0.6781 S.3       12 UNK        -0.2608 
     17 C17        30.4459   28.2242    0.2032 C.3       12 UNK        -0.0989 
     18 CA         29.4860   28.9638   -0.7585 C.3       5 UNK         0.0716 
     19 N          28.5040   28.0508   -1.3512 N.am      5 UNK        -0.4135 
     20 C          27.9695   28.1945   -2.5707 C.2       4 UNK         0.5031 
     21 O          28.2797   29.0937   -3.3544 O.2       4 UNK        -0.5229 
     22 CA         26.9230   27.1525   -3.0113 C.3       4 UNK         0.0329 
     23 CB         27.5890   26.0540   -3.8564 C.3       4 UNK        -0.2001 
     24 N          26.2067   26.5260   -1.8976 N.am      4 UNK        -0.4303 
     25 C          25.3193   27.1435   -1.1050 C.2       3 UNK         0.5044 
     26 O          24.9575   28.3084   -1.2729 O.2       3 UNK        -0.5152 
     27 CA         24.7132   26.3334    0.0610 C.3       3 UNK         0.0319 
     28 CB         23.1891   26.2011   -0.1043 C.3       3 UNK        -0.2001 
     29 N          25.2822   24.9919    0.2459 N.am      3 UNK        -0.4354 
     30 C          26.5127   24.7265    0.7021 C.2       2 UNK         0.4964 
     31 O          27.3514   25.5918    0.9640 O.2       2 UNK        -0.5047 
     32 CA         26.8793   23.2438    0.8256 C.3       2 UNK         0.0288 
     33 CB         27.3456   22.6827   -0.5298 C.3       2 UNK        -0.2113 
     34 N          27.9504   23.0944    1.8048 N.am      2 UNK        -0.4145 
     35 C          28.0943   22.0687    2.6517 C.2       1 UNK         0.5006 
     36 O          27.3255   21.1037    2.7006 O.2       1 UNK        -0.5103 
     37 C          28.7773   30.1383   -0.0522 C.2       5 UNK         0.5055 
     38 O          27.5658   30.0926    0.1778 O.2       5 UNK        -0.5220 
     39 N          29.5573   31.1780    0.2745 N.am      6 UNK        -0.4450 
     40 CA         29.1087   32.3983    0.9501 C.3       6 UNK         0.0367 
     41 CB         30.2796   33.3952    0.9950 C.3       6 UNK        -0.1929 
     42 C          28.5768   32.1486    2.3728 C.2       6 UNK         0.5070 
     43 O          28.9933   31.1948    3.0350 O.2       6 UNK        -0.5237 
     44 N          27.7191   33.0663    2.8421 N.am      7 UNK        -0.4739 
     45 CA         27.0603   33.0486    4.1575 C.3       7 UNK         0.0276 
     46 CB         26.0674   34.2202    4.2338 C.3       7 UNK        -0.1927 
     47 C          28.0107   33.0705    5.3716 C.2       7 UNK         0.5013 
     48 O          27.5857   32.7217    6.4733 O.2       7 UNK        -0.5193 
     49 N          29.2784   33.4454    5.1493 N.am      8 UNK        -0.4253 
     50 CA         30.3778   33.3342    6.1112 C.3       8 UNK         0.0242 
     51 CB         31.5911   34.1089    5.5689 C.3       8 UNK        -0.2000 
     52 C          30.7743   31.8789    6.4389 C.2       8 UNK         0.4948 
     53 O          31.4662   31.6686    7.4355 O.2       8 UNK        -0.5275 
     54 N          30.3512   30.9141    5.6032 N.am      9 UNK        -0.4246 
     55 CA         30.5831   29.4675    5.7135 C.3       9 UNK         0.0261 
     56 CB         29.9523   28.8954    7.0023 C.3       9 UNK        -0.1959 
     57 C          32.0569   29.0533    5.5300 C.2       9 UNK         0.5033 
     58 O          32.4509   27.9788    5.9871 O.2       9 UNK        -0.5390 
     59 N          32.8389   29.8966    4.8442 N.am      10 UNK        -0.4215 
     60 CA         34.1980   29.5975    4.3996 C.3       10 UNK         0.0240 
     61 CB         34.9593   30.9169    4.1896 C.3       10 UNK        -0.1982 
     62 C          34.1437   28.7897    3.0954 C.2       10 UNK         0.4970 
     63 O          33.2647   29.0390    2.2679 O.2       10 UNK        -0.4916 
     64 N          35.0942   27.8647    2.9256 N.am      11 UNK        -0.4279 
     65 CA         35.1639   26.9542    1.7698 C.3       11 UNK         0.1003 
     66 C          35.6287   27.6097    0.4353 C.2       11 UNK         0.5709 
     67 N          36.0802   28.8586    0.4248 N.am      11 UNK        -0.7358 
     68 O          35.5822   26.9698   -0.6125 O.2       11 UNK        -0.4999 
     69 C69        35.9931   25.6756    2.0769 C.3       12 UNK        -0.0954 
     70 S70        35.5505   24.8417    3.6413 S.3       12 UNK        -0.2268 
     71 C71        34.3242   23.6110    3.0965 C.3       12 UNK         0.0203 
     72 H72        30.6969   18.4606    4.3824 H         1 UNK         0.0888 
     73 H73        30.5778   17.9616    2.6939 H         1 UNK         0.0888 
     74 H74        32.0893   18.6335    3.3124 H         1 UNK         0.0888 
     75 H75        29.6264   20.3898    4.7440 H         1 UNK         0.3017 
     76 H76        30.0792   22.7162    3.1190 H         1 UNK         0.0873 
     77 H77        29.8253   22.8090    5.6250 H         1 UNK         0.0745 
     78 H78        28.1708   22.2875    5.4826 H         1 UNK         0.0745 
     79 H79        30.4827   25.2716    5.8657 H         1 UNK         0.0705 
     80 H80        29.7777   26.5589    4.9166 H         1 UNK         0.0705 
     81 H81        32.4841   24.3630    4.9498 H         1 UNK         0.1334 
     82 H82        33.1485   24.2567    0.7146 H         1 UNK         0.1417 
     83 H83        29.5239   25.9338    2.2831 H         1 UNK         0.1562 
     84 H84        29.7338   25.4348   -0.1386 H         1 UNK         0.0748 
     85 H85        31.1545   24.6300   -0.7438 H         1 UNK         0.0748 
     86 H86        31.1256   28.9239    0.6919 H         1 UNK         0.0940 
     87 H87        29.8848   27.7493    1.0065 H         1 UNK         0.0940 
     88 H88        30.0887   29.3961   -1.5608 H         1 UNK         0.0703 
     89 H89        28.1473   27.3235   -0.7479 H         1 UNK         0.3081 
     90 H90        26.1904   27.6685   -3.6357 H         1 UNK         0.0719 
     91 H91        28.3246   25.4906   -3.2805 H         1 UNK         0.0809 
     92 H92        26.8532   25.3495   -4.2450 H         1 UNK         0.0809 
     93 H93        28.1078   26.4834   -4.7148 H         1 UNK         0.0809 
     94 H94        26.4284   25.5628   -1.6957 H         1 UNK         0.2990 
     95 H95        24.9068   26.9049    0.9714 H         1 UNK         0.0690 
     96 H96        22.7375   25.7032    0.7540 H         1 UNK         0.0788 
     97 H97        22.9284   25.6343   -0.9990 H         1 UNK         0.0788 
     98 H98        22.7161   27.1805   -0.1904 H         1 UNK         0.0788 
     99 H99        24.6714   24.2177    0.0252 H         1 UNK         0.2993 
    100 H100       25.9940   22.7001    1.1635 H         1 UNK         0.0949 
    101 H101       28.2236   23.2110   -0.9044 H         1 UNK         0.0767 
    102 H102       27.6029   21.6260   -0.4511 H         1 UNK         0.0767 
    103 H103       26.5629   22.7679   -1.2846 H         1 UNK         0.0767 
    104 H104       28.5630   23.8956    1.8840 H         1 UNK         0.3013 
    105 H105       30.5452   31.1202    0.0742 H         1 UNK         0.3121 
    106 H106       28.3019   32.8279    0.3524 H         1 UNK         0.0774 
    107 H107       29.9783   34.3395    1.4504 H         1 UNK         0.0815 
    108 H108       31.1182   33.0069    1.5750 H         1 UNK         0.0815 
    109 H109       30.6430   33.6270   -0.0064 H         1 UNK         0.0815 
    110 H110       27.4598   33.8293    2.2322 H         1 UNK         0.2987 
    111 H111       26.4949   32.1163    4.2223 H         1 UNK         0.0949 
    112 H112       26.5720   35.1832    4.1446 H         1 UNK         0.0806 
    113 H113       25.3168   34.1583    3.4456 H         1 UNK         0.0806 
    114 H114       25.5330   34.2199    5.1851 H         1 UNK         0.0806 
    115 H115       29.5211   33.7299    4.2120 H         1 UNK         0.3010 
    116 H116       30.0580   33.8012    7.0452 H         1 UNK         0.0829 
    117 H117       31.3515   35.1601    5.4074 H         1 UNK         0.0813 
    118 H118       32.4236   34.0743    6.2733 H         1 UNK         0.0813 
    119 H119       31.9470   33.6955    4.6243 H         1 UNK         0.0813 
    120 H120       29.8098   31.1893    4.7861 H         1 UNK         0.3038 
    121 H121       30.0512   29.0267    4.8690 H         1 UNK         0.0769 
    122 H122       29.9948   27.8061    7.0140 H         1 UNK         0.0811 
    123 H123       28.9032   29.1781    7.0887 H         1 UNK         0.0811 
    124 H124       30.4693   29.2445    7.8964 H         1 UNK         0.0811 
    125 H125       32.4120   30.7265    4.4611 H         1 UNK         0.3204 
    126 H126       34.7093   29.0134    5.1681 H         1 UNK         0.0748 
    127 H127       35.9915   30.7294    3.8909 H         1 UNK         0.0771 
    128 H128       34.5008   31.5308    3.4129 H         1 UNK         0.0771 
    129 H129       34.9906   31.5058    5.1067 H         1 UNK         0.0771 
    130 H130       35.7893   27.7225    3.6430 H         1 UNK         0.2980 
    131 H131       34.1411   26.6341    1.5744 H         1 UNK         0.0545 
    132 H132       36.3763   29.2687   -0.4467 H         1 UNK         0.3459 
    133 H133       36.1172   29.3952    1.2756 H         1 UNK         0.3459 
    134 H134       35.9028   24.9571    1.2603 H         1 UNK         0.0616 
    135 H135       37.0533   25.9277    2.1367 H         1 UNK         0.0616 
    136 H136       34.6816   23.0988    2.2019 H         1 UNK         0.0634 
    137 H137       34.2310   22.8454    3.8680 H         1 UNK         0.0634 
@<TRIPOS>BOND
     1    1    2 1    
     2    1   72 1    
     3    1   73 1    
     4    1   74 1    
     5    2    3 2    
     6    2    4 am   BACKBONE|DICT|INTERRES
     7    4    5 1    
     8    4   75 1    
     9    5    6 1    
    10    5   35 1    
    11    5   76 1    
    12    6    7 1    
    13    6   77 1    
    14    6   78 1    
    15    7    8 1    
    16    8    9 1    
    17    8   79 1    
    18    8   80 1    
    19    9   10 ar   
    20    9   14 ar   
    21   10   11 ar   
    22   10   81 1    
    23   11   12 ar   
    24   11   71 1    
    25   12   13 ar   
    26   12   82 1    
    27   13   14 ar   
    28   13   15 1    
    29   14   83 1    
    30   15   16 1    
    31   15   84 1    
    32   15   85 1    
    33   16   17 1    
    34   17   18 1    
    35   17   86 1    
    36   17   87 1    
    37   18   19 1    
    38   18   37 1    
    39   18   88 1    
    40   19   20 am   BACKBONE|DICT|INTERRES
    41   19   89 1    
    42   20   21 2    
    43   20   22 1    
    44   22   23 1    
    45   22   24 1    
    46   22   90 1    
    47   23   91 1    
    48   23   92 1    
    49   23   93 1    
    50   24   25 am   BACKBONE|DICT|INTERRES
    51   24   94 1    
    52   25   26 2    
    53   25   27 1    
    54   27   28 1    
    55   27   29 1    
    56   27   95 1    
    57   28   96 1    
    58   28   97 1    
    59   28   98 1    
    60   29   30 am   BACKBONE|DICT|INTERRES
    61   29   99 1    
    62   30   31 2    
    63   30   32 1    
    64   32   33 1    
    65   32   34 1    
    66   32  100 1    
    67   33  101 1    
    68   33  102 1    
    69   33  103 1    
    70   34   35 am   BACKBONE|DICT|INTERRES
    71   34  104 1    
    72   35   36 2    
    73   37   38 2    
    74   37   39 am   BACKBONE|DICT|INTERRES
    75   39   40 1    
    76   39  105 1    
    77   40   41 1    
    78   40   42 1    
    79   40  106 1    
    80   41  107 1    
    81   41  108 1    
    82   41  109 1    
    83   42   43 2    
    84   42   44 am   BACKBONE|DICT|INTERRES
    85   44   45 1    
    86   44  110 1    
    87   45   46 1    
    88   45   47 1    
    89   45  111 1    
    90   46  112 1    
    91   46  113 1    
    92   46  114 1    
    93   47   48 2    
    94   47   49 am   BACKBONE|DICT|INTERRES
    95   49   50 1    
    96   49  115 1    
    97   50   51 1    
    98   50   52 1    
    99   50  116 1    
   100   51  117 1    
   101   51  118 1    
   102   51  119 1    
   103   52   53 2    
   104   52   54 am   BACKBONE|DICT|INTERRES
   105   54   55 1    
   106   54  120 1    
   107   55   56 1    
   108   55   57 1    
   109   55  121 1    
   110   56  122 1    
   111   56  123 1    
   112   56  124 1    
   113   57   58 2    
   114   57   59 am   BACKBONE|DICT|INTERRES
   115   59   60 1    
   116   59  125 1    
   117   60   61 1    
   118   60   62 1    
   119   60  126 1    
   120   61  127 1    
   121   61  128 1    
   122   61  129 1    
   123   62   63 2    
   124   62   64 am   BACKBONE|DICT|INTERRES
   125   64   65 1    
   126   64  130 1    
   127   65   66 1    
   128   65   69 1    
   129   65  131 1    
   130   66   67 am   BACKBONE|DICT|INTERRES
   131   66   68 2    
   132   67  132 1    
   133   67  133 1    
   134   69   70 1    
   135   69  134 1    
   136   69  135 1    
   137   70   71 1    
   138   71  136 1    
   139   71  137 1    
@<TRIPOS>SUBSTRUCTURE
     1 UNK         1 GROUP             0       ****    0 ROOT    
