@<TRIPOS>MOLECULE
3R136
137   139    1
SMALL
USER_CHARGES


@<TRIPOS>ATOM
      1 CA         31.3952   23.4464   -3.5730 C.3       0 UNK        -0.1979 
      2 C          30.0851   23.8999   -2.9474 C.2       0 UNK         0.4864 
      3 O          29.3010   24.5900   -3.6011 O.2       0 UNK        -0.5359 
      4 N          29.8426   23.5236   -1.6850 N.am      1 UNK        -0.4318 
      5 CA         28.6402   23.8563   -0.9151 C.3       1 UNK         0.0824 
      6 C6         28.8692   23.6989    0.6084 C.3       12 UNK        -0.0944 
      7 S7         30.0929   24.8823    1.2533 S.3       12 UNK        -0.2672 
      8 C8         30.4513   24.1297    2.8720 C.3       12 UNK         0.0333 
      9 C9         30.4945   25.1923    3.9557 C.ar      12 UNK        -0.0807 
     10 C10        31.7099   25.7618    4.3414 C.ar      12 UNK        -0.0894 
     11 C11        31.7472   26.7721    5.3065 C.ar      12 UNK        -0.0804 
     12 C12        30.5496   27.2144    5.8804 C.ar      12 UNK        -0.0824 
     13 C13        29.3263   26.6406    5.5160 C.ar      12 UNK        -0.0762 
     14 C14        29.3105   25.6171    4.5627 C.ar      12 UNK        -0.0782 
     15 C15        28.0348   27.1327    6.1674 C.3       12 UNK         0.0230 
     16 S16        26.6319   27.3206    5.0094 S.3       12 UNK        -0.2608 
     17 C17        27.3253   28.4413    3.7477 C.3       12 UNK        -0.0989 
     18 CA         27.3237   27.7967    2.3369 C.3       5 UNK         0.0716 
     19 N          25.9591   27.5709    1.8490 N.am      5 UNK        -0.4135 
     20 C          25.6071   26.7212    0.8771 C.2       4 UNK         0.5031 
     21 O          26.4060   26.0054    0.2668 O.2       4 UNK        -0.5229 
     22 CA         24.1222   26.7209    0.4808 C.3       4 UNK         0.0329 
     23 CB         23.8638   27.7779   -0.6050 C.3       4 UNK        -0.2001 
     24 N          23.7128   25.4140   -0.0290 N.am      4 UNK        -0.4303 
     25 C          23.4999   24.3257    0.7185 C.2       3 UNK         0.5044 
     26 O          23.5138   24.3299    1.9501 O.2       3 UNK        -0.5152 
     27 CA         23.2421   23.0018   -0.0253 C.3       3 UNK         0.0319 
     28 CB         21.7876   22.9071   -0.5273 C.3       3 UNK        -0.2001 
     29 N          24.2153   22.7223   -1.0918 N.am      3 UNK        -0.4354 
     30 C          24.3943   23.3485   -2.2637 C.2       2 UNK         0.4964 
     31 O          23.6990   24.2868   -2.6583 O.2       2 UNK        -0.5047 
     32 CA         25.6081   22.8893   -3.0925 C.3       2 UNK         0.0288 
     33 CB         25.5065   23.3117   -4.5698 C.3       2 UNK        -0.2113 
     34 N          26.8435   23.4355   -2.5295 N.am      2 UNK        -0.4145 
     35 C          27.4304   23.0294   -1.3965 C.2       1 UNK         0.5006 
     36 O          27.0537   22.0455   -0.7535 O.2       1 UNK        -0.5103 
     37 C          28.1329   28.6298    1.3208 C.2       5 UNK         0.5055 
     38 O          28.4392   29.7948    1.5771 O.2       5 UNK        -0.5220 
     39 N          28.4546   28.0246    0.1714 N.am      6 UNK        -0.4450 
     40 CA         29.2205   28.6406   -0.9163 C.3       6 UNK         0.0367 
     41 CB         29.2155   27.7023   -2.1317 C.3       6 UNK        -0.1929 
     42 C          30.6666   28.9946   -0.5248 C.2       6 UNK         0.5070 
     43 O          31.2142   29.9658   -1.0460 O.2       6 UNK        -0.5237 
     44 N          31.2505   28.2126    0.3919 N.am      7 UNK        -0.4739 
     45 CA         32.6172   28.3715    0.8913 C.3       7 UNK         0.0276 
     46 CB         33.2745   26.9816    0.9707 C.3       7 UNK        -0.1927 
     47 C          32.6775   29.1155    2.2399 C.2       7 UNK         0.5013 
     48 O          33.6698   28.9668    2.9527 O.2       7 UNK        -0.5193 
     49 N          31.6405   29.9053    2.5730 N.am      8 UNK        -0.4253 
     50 CA         31.5020   30.6634    3.8277 C.3       8 UNK         0.0242 
     51 CB         30.1904   31.4634    3.8166 C.3       8 UNK        -0.2000 
     52 C          32.6726   31.6052    4.1612 C.2       8 UNK         0.4948 
     53 O          32.9677   31.7975    5.3440 O.2       8 UNK        -0.5275 
     54 N          33.3424   32.1446    3.1316 N.am      9 UNK        -0.4246 
     55 CA         34.5326   33.0017    3.2134 C.3       9 UNK         0.0261 
     56 CB         34.7246   33.7122    1.8603 C.3       9 UNK        -0.1959 
     57 C          35.7984   32.2384    3.6677 C.2       9 UNK         0.5033 
     58 O          36.8288   32.2734    2.9920 O.2       9 UNK        -0.5390 
     59 N          35.6819   31.5652    4.8128 N.am      10 UNK        -0.4215 
     60 CA         36.6898   30.7628    5.4977 C.3       10 UNK         0.0240 
     61 CB         36.9860   29.4597    4.7291 C.3       10 UNK        -0.1982 
     62 C          36.1935   30.4667    6.9174 C.2       10 UNK         0.4970 
     63 O          36.9325   30.6877    7.8770 O.2       10 UNK        -0.4916 
     64 N          34.9403   30.0033    7.0215 N.am      11 UNK        -0.4279 
     65 CA         34.2312   29.7789    8.2904 C.3       11 UNK         0.1003 
     66 C          33.7848   31.0997    8.9753 C.2       11 UNK         0.5709 
     67 N          33.3983   32.1253    8.2243 N.am      11 UNK        -0.7358 
     68 O          33.7946   31.1944   10.2002 O.2       11 UNK        -0.4999 
     69 C69        33.0194   28.8258    8.1183 C.3       12 UNK        -0.0954 
     70 S70        33.4914   27.1934    7.4501 S.3       12 UNK        -0.2268 
     71 C71        33.0824   27.4000    5.6883 C.3       12 UNK         0.0203 
     72 H72        31.9937   22.8531   -2.8818 H         1 UNK         0.0888 
     73 H73        31.9844   24.3117   -3.8753 H         1 UNK         0.0888 
     74 H74        31.1983   22.8415   -4.4577 H         1 UNK         0.0888 
     75 H75        30.5204   22.9536   -1.1998 H         1 UNK         0.3017 
     76 H76        28.3975   24.9040   -1.1009 H         1 UNK         0.0873 
     77 H77        29.1910   22.6823    0.8432 H         1 UNK         0.0745 
     78 H78        27.9387   23.8637    1.1561 H         1 UNK         0.0745 
     79 H79        29.6937   23.3866    3.1258 H         1 UNK         0.0705 
     80 H80        31.4000   23.5938    2.8165 H         1 UNK         0.0705 
     81 H81        32.6277   25.4257    3.8791 H         1 UNK         0.1334 
     82 H82        30.5699   28.0022    6.6193 H         1 UNK         0.1417 
     83 H83        28.3716   25.1660    4.2718 H         1 UNK         0.1562 
     84 H84        28.1982   28.0924    6.6604 H         1 UNK         0.0748 
     85 H85        27.7497   26.4293    6.9506 H         1 UNK         0.0748 
     86 H86        28.3411   28.7113    4.0398 H         1 UNK         0.0940 
     87 H87        26.7559   29.3727    3.7523 H         1 UNK         0.0940 
     88 H88        27.8231   26.8284    2.4114 H         1 UNK         0.0703 
     89 H89        25.2428   28.1364    2.2802 H         1 UNK         0.3081 
     90 H90        23.5180   26.9586    1.3591 H         1 UNK         0.0719 
     91 H91        24.4457   27.5790   -1.5064 H         1 UNK         0.0809 
     92 H92        22.8109   27.8078   -0.8865 H         1 UNK         0.0809 
     93 H93        24.1335   28.7756   -0.2562 H         1 UNK         0.0809 
     94 H94        23.7124   25.2886   -1.0373 H         1 UNK         0.2990 
     95 H95        23.3821   22.2042    0.7062 H         1 UNK         0.0690 
     96 H96        21.5946   21.9457   -1.0030 H         1 UNK         0.0788 
     97 H97        21.5471   23.6912   -1.2456 H         1 UNK         0.0788 
     98 H98        21.0858   23.0052    0.3020 H         1 UNK         0.0788 
     99 H99        24.9305   22.0477   -0.8402 H         1 UNK         0.2993 
    100 H100       25.6513   21.7984   -3.0560 H         1 UNK         0.0949 
    101 H101       24.5913   22.9282   -5.0228 H         1 UNK         0.0767 
    102 H102       25.4978   24.3968   -4.6826 H         1 UNK         0.0767 
    103 H103       26.3435   22.9229   -5.1503 H         1 UNK         0.0767 
    104 H104       27.2765   24.2033   -3.0303 H         1 UNK         0.3013 
    105 H105       28.0876   27.0900    0.0197 H         1 UNK         0.3121 
    106 H106       28.7153   29.5681   -1.1942 H         1 UNK         0.0774 
    107 H107       28.2016   27.4444   -2.4382 H         1 UNK         0.0815 
    108 H108       29.7510   26.7763   -1.9217 H         1 UNK         0.0815 
    109 H109       29.7037   28.1703   -2.9875 H         1 UNK         0.0815 
    110 H110       30.7199   27.4394    0.7713 H         1 UNK         0.2987 
    111 H111       33.2001   28.9683    0.1864 H         1 UNK         0.0949 
    112 H112       32.7691   26.3393    1.6904 H         1 UNK         0.0806 
    113 H113       33.2543   26.4783    0.0040 H         1 UNK         0.0806 
    114 H114       34.3200   27.0534    1.2732 H         1 UNK         0.0806 
    115 H115       30.8603   29.9559    1.9308 H         1 UNK         0.3010 
    116 H116       31.4398   29.9350    4.6372 H         1 UNK         0.0829 
    117 H117       29.3229   30.8072    3.8095 H         1 UNK         0.0813 
    118 H118       30.1020   32.0888    4.7064 H         1 UNK         0.0813 
    119 H119       30.1231   32.1194    2.9479 H         1 UNK         0.0813 
    120 H120       33.0403   31.8936    2.2017 H         1 UNK         0.3038 
    121 H121       34.3416   33.7701    3.9656 H         1 UNK         0.0769 
    122 H122       34.9199   33.0017    1.0561 H         1 UNK         0.0811 
    123 H123       35.5679   34.4034    1.8972 H         1 UNK         0.0811 
    124 H124       33.8444   34.2952    1.5886 H         1 UNK         0.0811 
    125 H125       34.7775   31.6389    5.2751 H         1 UNK         0.3204 
    126 H126       37.6073   31.3501    5.5729 H         1 UNK         0.0748 
    127 H127       37.4310   29.6642    3.7553 H         1 UNK         0.0771 
    128 H128       37.6890   28.8326    5.2789 H         1 UNK         0.0771 
    129 H129       36.0817   28.8726    4.5625 H         1 UNK         0.0771 
    130 H130       34.4058   29.8374    6.1831 H         1 UNK         0.2980 
    131 H131       34.9309   29.2934    8.9739 H         1 UNK         0.0545 
    132 H132       33.1144   32.9816    8.6721 H         1 UNK         0.3459 
    133 H133       33.3148   32.0319    7.2171 H         1 UNK         0.3459 
    134 H134       32.5379   28.6513    9.0823 H         1 UNK         0.0616 
    135 H135       32.2614   29.2855    7.4825 H         1 UNK         0.0616 
    136 H136       33.0702   28.4576    5.4320 H         1 UNK         0.0634 
    137 H137       33.8916   26.9620    5.1020 H         1 UNK         0.0634 
@<TRIPOS>BOND
     1    1    2 1    
     2    1   72 1    
     3    1   73 1    
     4    1   74 1    
     5    2    3 2    
     6    2    4 am   BACKBONE|DICT|INTERRES
     7    4    5 1    
     8    4   75 1    
     9    5    6 1    
    10    5   35 1    
    11    5   76 1    
    12    6    7 1    
    13    6   77 1    
    14    6   78 1    
    15    7    8 1    
    16    8    9 1    
    17    8   79 1    
    18    8   80 1    
    19    9   10 ar   
    20    9   14 ar   
    21   10   11 ar   
    22   10   81 1    
    23   11   12 ar   
    24   11   71 1    
    25   12   13 ar   
    26   12   82 1    
    27   13   14 ar   
    28   13   15 1    
    29   14   83 1    
    30   15   16 1    
    31   15   84 1    
    32   15   85 1    
    33   16   17 1    
    34   17   18 1    
    35   17   86 1    
    36   17   87 1    
    37   18   19 1    
    38   18   37 1    
    39   18   88 1    
    40   19   20 am   BACKBONE|DICT|INTERRES
    41   19   89 1    
    42   20   21 2    
    43   20   22 1    
    44   22   23 1    
    45   22   24 1    
    46   22   90 1    
    47   23   91 1    
    48   23   92 1    
    49   23   93 1    
    50   24   25 am   BACKBONE|DICT|INTERRES
    51   24   94 1    
    52   25   26 2    
    53   25   27 1    
    54   27   28 1    
    55   27   29 1    
    56   27   95 1    
    57   28   96 1    
    58   28   97 1    
    59   28   98 1    
    60   29   30 am   BACKBONE|DICT|INTERRES
    61   29   99 1    
    62   30   31 2    
    63   30   32 1    
    64   32   33 1    
    65   32   34 1    
    66   32  100 1    
    67   33  101 1    
    68   33  102 1    
    69   33  103 1    
    70   34   35 am   BACKBONE|DICT|INTERRES
    71   34  104 1    
    72   35   36 2    
    73   37   38 2    
    74   37   39 am   BACKBONE|DICT|INTERRES
    75   39   40 1    
    76   39  105 1    
    77   40   41 1    
    78   40   42 1    
    79   40  106 1    
    80   41  107 1    
    81   41  108 1    
    82   41  109 1    
    83   42   43 2    
    84   42   44 am   BACKBONE|DICT|INTERRES
    85   44   45 1    
    86   44  110 1    
    87   45   46 1    
    88   45   47 1    
    89   45  111 1    
    90   46  112 1    
    91   46  113 1    
    92   46  114 1    
    93   47   48 2    
    94   47   49 am   BACKBONE|DICT|INTERRES
    95   49   50 1    
    96   49  115 1    
    97   50   51 1    
    98   50   52 1    
    99   50  116 1    
   100   51  117 1    
   101   51  118 1    
   102   51  119 1    
   103   52   53 2    
   104   52   54 am   BACKBONE|DICT|INTERRES
   105   54   55 1    
   106   54  120 1    
   107   55   56 1    
   108   55   57 1    
   109   55  121 1    
   110   56  122 1    
   111   56  123 1    
   112   56  124 1    
   113   57   58 2    
   114   57   59 am   BACKBONE|DICT|INTERRES
   115   59   60 1    
   116   59  125 1    
   117   60   61 1    
   118   60   62 1    
   119   60  126 1    
   120   61  127 1    
   121   61  128 1    
   122   61  129 1    
   123   62   63 2    
   124   62   64 am   BACKBONE|DICT|INTERRES
   125   64   65 1    
   126   64  130 1    
   127   65   66 1    
   128   65   69 1    
   129   65  131 1    
   130   66   67 am   BACKBONE|DICT|INTERRES
   131   66   68 2    
   132   67  132 1    
   133   67  133 1    
   134   69   70 1    
   135   69  134 1    
   136   69  135 1    
   137   70   71 1    
   138   71  136 1    
   139   71  137 1    
@<TRIPOS>SUBSTRUCTURE
     1 UNK         1 GROUP             0       ****    0 ROOT    
