@<TRIPOS>MOLECULE
3R136
137   139    1
SMALL
USER_CHARGES


@<TRIPOS>ATOM
      1 CA         29.4248   21.0433   -4.3607 C.3       0 UNK        -0.1979 
      2 C          28.5380   22.1773   -3.8682 C.2       0 UNK         0.4864 
      3 O          27.5702   22.5335   -4.5417 O.2       0 UNK        -0.5359 
      4 N          28.8613   22.7459   -2.6987 N.am      1 UNK        -0.4318 
      5 CA         28.1353   23.8649   -2.0802 C.3       1 UNK         0.0824 
      6 C6         28.9520   24.5498   -0.9553 C.3       12 UNK        -0.0944 
      7 S7         30.6242   25.0691   -1.4683 S.3       12 UNK        -0.2672 
      8 C8         31.6773   23.9235   -0.5197 C.3       12 UNK         0.0333 
      9 C9         31.7465   24.2953    0.9555 C.ar      12 UNK        -0.0807 
     10 C10        32.6209   25.2994    1.3812 C.ar      12 UNK        -0.0894 
     11 C11        32.7139   25.6364    2.7350 C.ar      12 UNK        -0.0804 
     12 C12        31.9212   24.9596    3.6669 C.ar      12 UNK        -0.0824 
     13 C13        31.0282   23.9667    3.2518 C.ar      12 UNK        -0.0762 
     14 C14        30.9557   23.6288    1.8973 C.ar      12 UNK        -0.0782 
     15 C15        30.1334   23.2633    4.2627 C.3       12 UNK         0.0230 
     16 S16        28.4210   23.8871    4.2023 S.3       12 UNK        -0.2608 
     17 C17        28.6336   25.6164    4.7461 C.3       12 UNK        -0.0989 
     18 CA         28.6066   26.6101    3.5561 C.3       5 UNK         0.0716 
     19 N          27.3096   26.6007    2.8695 N.am      5 UNK        -0.4135 
     20 C          27.0657   27.0394    1.6295 C.2       4 UNK         0.5031 
     21 O          27.9386   27.5178    0.9007 O.2       4 UNK        -0.5229 
     22 CA         25.6073   26.9562    1.1383 C.3       4 UNK         0.0329 
     23 CB         25.4439   27.4583   -0.3087 C.3       4 UNK        -0.2001 
     24 N          25.0410   25.6065    1.2531 N.am      4 UNK        -0.4303 
     25 C          24.5599   25.0739    2.3878 C.2       3 UNK         0.5044 
     26 O          24.6343   25.6444    3.4777 O.2       3 UNK        -0.5152 
     27 CA         23.8635   23.7011    2.3213 C.3       3 UNK         0.0319 
     28 CB         22.3405   23.8707    2.4494 C.3       3 UNK        -0.2001 
     29 N          24.1525   22.9505    1.0987 N.am      3 UNK        -0.4354 
     30 C          25.2702   22.2444    0.8895 C.2       2 UNK         0.4964 
     31 O          26.1675   22.1203    1.7234 O.2       2 UNK        -0.5047 
     32 CA         25.4426   21.5777   -0.4889 C.3       2 UNK         0.0288 
     33 CB         24.1766   21.5948   -1.3783 C.3       2 UNK        -0.2113 
     34 N          26.5892   22.1597   -1.1938 N.am      2 UNK        -0.4145 
     35 C          26.7567   23.4519   -1.5216 C.2       1 UNK         0.5006 
     36 O          25.8909   24.3141   -1.3611 O.2       1 UNK        -0.5103 
     37 C          29.0131   28.0411    3.9755 C.2       5 UNK         0.5055 
     38 O          29.1724   28.3231    5.1647 O.2       5 UNK        -0.5220 
     39 N          29.1595   28.9266    2.9854 N.am      6 UNK        -0.4450 
     40 CA         29.5813   30.3172    3.1412 C.3       6 UNK         0.0367 
     41 CB         28.3427   31.2291    3.1790 C.3       6 UNK        -0.1929 
     42 C          30.5745   30.7551    2.0536 C.2       6 UNK         0.5070 
     43 O          30.9618   31.9243    2.0479 O.2       6 UNK        -0.5237 
     44 N          30.9823   29.8272    1.1735 N.am      7 UNK        -0.4739 
     45 CA         31.8123   30.0548   -0.0156 C.3       7 UNK         0.0276 
     46 CB         31.9684   28.7249   -0.7702 C.3       7 UNK        -0.1927 
     47 C          33.1926   30.6830    0.2494 C.2       7 UNK         0.5013 
     48 O          33.6987   31.3994   -0.6143 O.2       7 UNK        -0.5193 
     49 N          33.7618   30.4400    1.4374 N.am      8 UNK        -0.4253 
     50 CA         35.0222   31.0291    1.9038 C.3       8 UNK         0.0242 
     51 CB         35.7475   30.0161    2.8096 C.3       8 UNK        -0.2000 
     52 C          34.8241   32.3866    2.6130 C.2       8 UNK         0.4948 
     53 O          35.6955   32.7836    3.3873 O.2       8 UNK        -0.5275 
     54 N          33.6928   33.0615    2.3511 N.am      9 UNK        -0.4246 
     55 CA         33.2030   34.2911    2.9842 C.3       9 UNK         0.0261 
     56 CB         34.1766   35.4732    2.7819 C.3       9 UNK        -0.1959 
     57 C          32.8426   34.0294    4.4559 C.2       9 UNK         0.5033 
     58 O          33.4782   34.5824    5.3552 O.2       9 UNK        -0.5390 
     59 N          31.8313   33.1661    4.6414 N.am      10 UNK        -0.4215 
     60 CA         31.3475   32.5845    5.9017 C.3       10 UNK         0.0240 
     61 CB         30.9650   33.6594    6.9420 C.3       10 UNK        -0.1982 
     62 C          32.3577   31.5580    6.4435 C.2       10 UNK         0.4970 
     63 O          33.2870   31.9208    7.1667 O.2       10 UNK        -0.4916 
     64 N          32.1689   30.2950    6.0433 N.am      11 UNK        -0.4279 
     65 CA         33.0183   29.1499    6.3995 C.3       11 UNK         0.1003 
     66 C          32.9917   28.8212    7.9181 C.2       11 UNK         0.5709 
     67 N          34.0822   28.2918    8.4548 N.am      11 UNK        -0.7358 
     68 O          31.9853   29.0020    8.6016 O.2       11 UNK        -0.4999 
     69 C69        32.6449   27.8986    5.5621 C.3       12 UNK        -0.0954 
     70 S70        32.7827   28.2025    3.7663 S.3       12 UNK        -0.2268 
     71 C71        33.6746   26.7276    3.1842 C.3       12 UNK         0.0203 
     72 H72        29.8524   21.2962   -5.3305 H         1 UNK         0.0888 
     73 H73        30.2447   20.8374   -3.6728 H         1 UNK         0.0888 
     74 H74        28.8396   20.1311   -4.4736 H         1 UNK         0.0888 
     75 H75        29.6841   22.4320   -2.2057 H         1 UNK         0.3017 
     76 H76        27.9509   24.6081   -2.8591 H         1 UNK         0.0873 
     77 H77        28.4313   25.4463   -0.6178 H         1 UNK         0.0745 
     78 H78        29.0183   23.9018   -0.0815 H         1 UNK         0.0745 
     79 H79        31.3182   22.9010   -0.6439 H         1 UNK         0.0705 
     80 H80        32.6823   23.9430   -0.9439 H         1 UNK         0.0705 
     81 H81        33.2334   25.8138    0.6536 H         1 UNK         0.1334 
     82 H82        31.9885   25.2184    4.7141 H         1 UNK         0.1417 
     83 H83        30.2740   22.8511    1.5812 H         1 UNK         0.1562 
     84 H84        30.5259   23.3748    5.2748 H         1 UNK         0.0748 
     85 H85        30.1252   22.1919    4.0565 H         1 UNK         0.0748 
     86 H86        29.5690   25.6985    5.3025 H         1 UNK         0.0940 
     87 H87        27.8423   25.8542    5.4596 H         1 UNK         0.0940 
     88 H88        29.3619   26.2827    2.8381 H         1 UNK         0.0703 
     89 H89        26.5225   26.2321    3.3942 H         1 UNK         0.3081 
     90 H90        25.0257   27.6265    1.7748 H         1 UNK         0.0719 
     91 H91        26.0580   26.8901   -1.0075 H         1 UNK         0.0809 
     92 H92        24.4076   27.3924   -0.6402 H         1 UNK         0.0809 
     93 H93        25.7445   28.5034   -0.3934 H         1 UNK         0.0809 
     94 H94        25.0272   25.0542    0.4021 H         1 UNK         0.2990 
     95 H95        24.2110   23.1209    3.1791 H         1 UNK         0.0690 
     96 H96        21.8344   22.9055    2.4773 H         1 UNK         0.0788 
     97 H97        21.9261   24.4448    1.6196 H         1 UNK         0.0788 
     98 H98        22.0816   24.3960    3.3700 H         1 UNK         0.0788 
     99 H99        23.4780   23.0154    0.3496 H         1 UNK         0.2993 
    100 H100       25.6923   20.5340   -0.2911 H         1 UNK         0.0949 
    101 H101       23.8644   22.6046   -1.6466 H         1 UNK         0.0767 
    102 H102       24.3504   21.0520   -2.3076 H         1 UNK         0.0767 
    103 H103       23.3379   21.1075   -0.8790 H         1 UNK         0.0767 
    104 H104       27.3707   21.5379   -1.3439 H         1 UNK         0.3013 
    105 H105       28.9071   28.6171    2.0478 H         1 UNK         0.3121 
    106 H106       30.1148   30.4206    4.0839 H         1 UNK         0.0774 
    107 H107       27.7739   31.1701    2.2504 H         1 UNK         0.0815 
    108 H108       28.6223   32.2731    3.3262 H         1 UNK         0.0815 
    109 H109       27.6763   30.9568    3.9977 H         1 UNK         0.0815 
    110 H110       30.6573   28.8806    1.3024 H         1 UNK         0.2987 
    111 H111       31.2668   30.7495   -0.6578 H         1 UNK         0.0949 
    112 H112       32.4782   27.9763   -0.1634 H         1 UNK         0.0806 
    113 H113       31.0008   28.3156   -1.0626 H         1 UNK         0.0806 
    114 H114       32.5510   28.8568   -1.6831 H         1 UNK         0.0806 
    115 H115       33.2682   29.8467    2.0919 H         1 UNK         0.3010 
    116 H116       35.6660   31.2171    1.0418 H         1 UNK         0.0829 
    117 H117       36.7533   30.3602    3.0537 H         1 UNK         0.0813 
    118 H118       35.2205   29.8683    3.7526 H         1 UNK         0.0813 
    119 H119       35.8514   29.0466    2.3225 H         1 UNK         0.0813 
    120 H120       33.0231   32.6127    1.7376 H         1 UNK         0.3038 
    121 H121       32.2737   34.5497    2.4736 H         1 UNK         0.0769 
    122 H122       35.1223   35.3244    3.3034 H         1 UNK         0.0811 
    123 H123       33.7431   36.3982    3.1638 H         1 UNK         0.0811 
    124 H124       34.3968   35.6290    1.7259 H         1 UNK         0.0811 
    125 H125       31.4186   32.7800    3.7965 H         1 UNK         0.3204 
    126 H126       30.4253   32.0549    5.6619 H         1 UNK         0.0748 
    127 H127       30.4920   33.2005    7.8109 H         1 UNK         0.0771 
    128 H128       31.8301   34.2132    7.3070 H         1 UNK         0.0771 
    129 H129       30.2575   34.3777    6.5280 H         1 UNK         0.0771 
    130 H130       31.3540   30.0608    5.4985 H         1 UNK         0.2980 
    131 H131       34.0428   29.4303    6.1457 H         1 UNK         0.0545 
    132 H132       34.0804   28.0581    9.4355 H         1 UNK         0.3459 
    133 H133       34.9089   28.1265    7.9028 H         1 UNK         0.3459 
    134 H134       31.6266   27.5756    5.7823 H         1 UNK         0.0616 
    135 H135       33.2905   27.0630    5.8361 H         1 UNK         0.0616 
    136 H136       34.3162   27.0283    2.3548 H         1 UNK         0.0634 
    137 H137       34.3437   26.3460    3.9561 H         1 UNK         0.0634 
@<TRIPOS>BOND
     1    1    2 1    
     2    1   72 1    
     3    1   73 1    
     4    1   74 1    
     5    2    3 2    
     6    2    4 am   BACKBONE|DICT|INTERRES
     7    4    5 1    
     8    4   75 1    
     9    5    6 1    
    10    5   35 1    
    11    5   76 1    
    12    6    7 1    
    13    6   77 1    
    14    6   78 1    
    15    7    8 1    
    16    8    9 1    
    17    8   79 1    
    18    8   80 1    
    19    9   10 ar   
    20    9   14 ar   
    21   10   11 ar   
    22   10   81 1    
    23   11   12 ar   
    24   11   71 1    
    25   12   13 ar   
    26   12   82 1    
    27   13   14 ar   
    28   13   15 1    
    29   14   83 1    
    30   15   16 1    
    31   15   84 1    
    32   15   85 1    
    33   16   17 1    
    34   17   18 1    
    35   17   86 1    
    36   17   87 1    
    37   18   19 1    
    38   18   37 1    
    39   18   88 1    
    40   19   20 am   BACKBONE|DICT|INTERRES
    41   19   89 1    
    42   20   21 2    
    43   20   22 1    
    44   22   23 1    
    45   22   24 1    
    46   22   90 1    
    47   23   91 1    
    48   23   92 1    
    49   23   93 1    
    50   24   25 am   BACKBONE|DICT|INTERRES
    51   24   94 1    
    52   25   26 2    
    53   25   27 1    
    54   27   28 1    
    55   27   29 1    
    56   27   95 1    
    57   28   96 1    
    58   28   97 1    
    59   28   98 1    
    60   29   30 am   BACKBONE|DICT|INTERRES
    61   29   99 1    
    62   30   31 2    
    63   30   32 1    
    64   32   33 1    
    65   32   34 1    
    66   32  100 1    
    67   33  101 1    
    68   33  102 1    
    69   33  103 1    
    70   34   35 am   BACKBONE|DICT|INTERRES
    71   34  104 1    
    72   35   36 2    
    73   37   38 2    
    74   37   39 am   BACKBONE|DICT|INTERRES
    75   39   40 1    
    76   39  105 1    
    77   40   41 1    
    78   40   42 1    
    79   40  106 1    
    80   41  107 1    
    81   41  108 1    
    82   41  109 1    
    83   42   43 2    
    84   42   44 am   BACKBONE|DICT|INTERRES
    85   44   45 1    
    86   44  110 1    
    87   45   46 1    
    88   45   47 1    
    89   45  111 1    
    90   46  112 1    
    91   46  113 1    
    92   46  114 1    
    93   47   48 2    
    94   47   49 am   BACKBONE|DICT|INTERRES
    95   49   50 1    
    96   49  115 1    
    97   50   51 1    
    98   50   52 1    
    99   50  116 1    
   100   51  117 1    
   101   51  118 1    
   102   51  119 1    
   103   52   53 2    
   104   52   54 am   BACKBONE|DICT|INTERRES
   105   54   55 1    
   106   54  120 1    
   107   55   56 1    
   108   55   57 1    
   109   55  121 1    
   110   56  122 1    
   111   56  123 1    
   112   56  124 1    
   113   57   58 2    
   114   57   59 am   BACKBONE|DICT|INTERRES
   115   59   60 1    
   116   59  125 1    
   117   60   61 1    
   118   60   62 1    
   119   60  126 1    
   120   61  127 1    
   121   61  128 1    
   122   61  129 1    
   123   62   63 2    
   124   62   64 am   BACKBONE|DICT|INTERRES
   125   64   65 1    
   126   64  130 1    
   127   65   66 1    
   128   65   69 1    
   129   65  131 1    
   130   66   67 am   BACKBONE|DICT|INTERRES
   131   66   68 2    
   132   67  132 1    
   133   67  133 1    
   134   69   70 1    
   135   69  134 1    
   136   69  135 1    
   137   70   71 1    
   138   71  136 1    
   139   71  137 1    
@<TRIPOS>SUBSTRUCTURE
     1 UNK         1 GROUP             0       ****    0 ROOT    
