@<TRIPOS>MOLECULE
3R136
137   139    1
SMALL
USER_CHARGES


@<TRIPOS>ATOM
      1 CA         28.0190   22.1290    4.6489 C.3       0 UNK        -0.1979 
      2 C          27.6105   22.3992    3.2089 C.2       0 UNK         0.4864 
      3 O          27.5017   23.5632    2.8240 O.2       0 UNK        -0.5359 
      4 N          27.3910   21.3314    2.4250 N.am      1 UNK        -0.4318 
      5 CA         27.0106   21.3123    1.0028 C.3       1 UNK         0.0824 
      6 C6         28.2290   21.3246    0.0299 C.3       12 UNK        -0.0944 
      7 S7         29.3069   22.7990    0.1013 S.3       12 UNK        -0.2672 
      8 C8         30.7436   22.1286    0.9976 C.3       12 UNK         0.0333 
      9 C9         31.7880   23.2042    1.2546 C.ar      12 UNK        -0.0807 
     10 C10        31.9520   23.7480    2.5325 C.ar      12 UNK        -0.0894 
     11 C11        32.9031   24.7482    2.7631 C.ar      12 UNK        -0.0804 
     12 C12        33.6857   25.2106    1.6986 C.ar      12 UNK        -0.0824 
     13 C13        33.5436   24.6604    0.4215 C.ar      12 UNK        -0.0762 
     14 C14        32.5964   23.6545    0.2084 C.ar      12 UNK        -0.0782 
     15 C15        34.4385   25.1159   -0.7219 C.3       12 UNK         0.0230 
     16 S16        33.4876   25.7969   -2.1173 S.3       12 UNK        -0.2608 
     17 C17        33.1426   27.5023   -1.5757 C.3       12 UNK        -0.0989 
     18 CA         31.6261   27.7580   -1.3880 C.3       5 UNK         0.0716 
     19 N          31.1083   27.1297   -0.1617 N.am      5 UNK        -0.4135 
     20 C          29.8118   27.0268    0.1714 C.2       4 UNK         0.5031 
     21 O          28.8955   27.4201   -0.5524 O.2       4 UNK        -0.5229 
     22 CA         29.5200   26.3598    1.5320 C.3       4 UNK         0.0329 
     23 CB         30.1800   27.1128    2.7031 C.3       4 UNK        -0.2001 
     24 N          28.0983   26.1379    1.8075 N.am      4 UNK        -0.4303 
     25 C          27.1415   27.0469    2.0407 C.2       3 UNK         0.5044 
     26 O          27.3358   28.2614    2.1125 O.2       3 UNK        -0.5152 
     27 CA         25.7259   26.4797    2.2681 C.3       3 UNK         0.0319 
     28 CB         24.6314   27.5693    2.2959 C.3       3 UNK        -0.2001 
     29 N          25.3966   25.4057    1.3203 N.am      3 UNK        -0.4354 
     30 C          25.2927   25.4985   -0.0148 C.2       2 UNK         0.4964 
     31 O          25.3564   26.5597   -0.6369 O.2       2 UNK        -0.5047 
     32 CA         25.0983   24.1748   -0.7836 C.3       2 UNK         0.0288 
     33 CB         25.2319   24.3478   -2.3090 C.3       2 UNK        -0.2113 
     34 N          26.0535   23.1538   -0.3451 N.am      2 UNK        -0.4145 
     35 C          25.8613   22.2917    0.6608 C.2       1 UNK         0.5006 
     36 O          24.8210   22.2510    1.3224 O.2       1 UNK        -0.5103 
     37 C          31.3251   29.2711   -1.4795 C.2       5 UNK         0.5055 
     38 O          31.2143   29.7945   -2.5895 O.2       5 UNK        -0.5220 
     39 N          31.1904   29.9399   -0.3301 N.am      6 UNK        -0.4450 
     40 CA         30.6995   31.3050   -0.1958 C.3       6 UNK         0.0367 
     41 CB         31.8511   32.2481    0.1901 C.3       6 UNK        -0.1929 
     42 C          29.6335   31.2401    0.8965 C.2       6 UNK         0.5070 
     43 O          29.9483   30.7404    1.9811 O.2       6 UNK        -0.5237 
     44 N          28.4198   31.7041    0.5629 N.am      7 UNK        -0.4739 
     45 CA         27.1474   31.5665    1.2875 C.3       7 UNK         0.0276 
     46 CB         26.1107   32.5054    0.6438 C.3       7 UNK        -0.1927 
     47 C          27.2380   31.7925    2.8072 C.2       7 UNK         0.5013 
     48 O          27.1380   32.9339    3.2622 O.2       7 UNK        -0.5193 
     49 N          27.4646   30.6951    3.5445 N.am      8 UNK        -0.4253 
     50 CA         27.6993   30.6096    4.9926 C.3       8 UNK         0.0242 
     51 CB         26.3989   30.9206    5.7629 C.3       8 UNK        -0.2000 
     52 C          28.8985   31.4453    5.4990 C.2       8 UNK         0.4948 
     53 O          28.9571   31.7564    6.6904 O.2       8 UNK        -0.5275 
     54 N          29.8243   31.7969    4.5977 N.am      9 UNK        -0.4246 
     55 CA         30.9800   32.6566    4.8543 C.3       9 UNK         0.0261 
     56 CB         30.9558   33.8344    3.8662 C.3       9 UNK        -0.1959 
     57 C          32.3026   31.8884    4.7364 C.2       9 UNK         0.5033 
     58 O          33.2446   32.2093    5.4638 O.2       9 UNK        -0.5390 
     59 N          32.3660   30.8943    3.8381 N.am      10 UNK        -0.4215 
     60 CA         33.5230   30.0065    3.6928 C.3       10 UNK         0.0240 
     61 CB         33.4563   29.2834    2.3372 C.3       10 UNK        -0.1982 
     62 C          33.6279   29.0165    4.8681 C.2       10 UNK         0.4970 
     63 O          32.6166   28.7018    5.4992 O.2       10 UNK        -0.4916 
     64 N          34.8569   28.5534    5.1296 N.am      11 UNK        -0.4279 
     65 CA         35.2544   27.7011    6.2689 C.3       11 UNK         0.1003 
     66 C          35.2047   28.4100    7.6590 C.2       11 UNK         0.5709 
     67 N          35.0026   29.7205    7.7375 N.am      11 UNK        -0.7358 
     68 O          35.3918   27.7676    8.6901 O.2       11 UNK        -0.4999 
     69 C69        34.5617   26.3050    6.2999 C.3       12 UNK        -0.0954 
     70 S70        34.7659   25.3486    4.7593 S.3       12 UNK        -0.2268 
     71 C71        33.0499   25.3526    4.1543 C.3       12 UNK         0.0203 
     72 H72        28.0995   21.0627    4.8589 H         1 UNK         0.0888 
     73 H73        28.9848   22.5896    4.8547 H         1 UNK         0.0888 
     74 H74        27.2852   22.5561    5.3318 H         1 UNK         0.0888 
     75 H75        27.4716   20.4154    2.8434 H         1 UNK         0.3017 
     76 H76        26.5469   20.3335    0.8690 H         1 UNK         0.0873 
     77 H77        28.8397   20.4413    0.2232 H         1 UNK         0.0745 
     78 H78        27.8913   21.2006   -1.0007 H         1 UNK         0.0745 
     79 H79        31.1888   21.3195    0.4166 H         1 UNK         0.0705 
     80 H80        30.4089   21.6883    1.9379 H         1 UNK         0.0705 
     81 H81        31.3282   23.4005    3.3449 H         1 UNK         0.1334 
     82 H82        34.4211   25.9841    1.8736 H         1 UNK         0.1417 
     83 H83        32.4800   23.2279   -0.7791 H         1 UNK         0.1562 
     84 H84        35.0066   24.2555   -1.0786 H         1 UNK         0.0748 
     85 H85        35.1764   25.8464   -0.3864 H         1 UNK         0.0748 
     86 H86        33.5550   28.1531   -2.3502 H         1 UNK         0.0940 
     87 H87        33.6956   27.7398   -0.6651 H         1 UNK         0.0940 
     88 H88        31.0966   27.2998   -2.2264 H         1 UNK         0.0703 
     89 H89        31.7973   26.7051    0.4414 H         1 UNK         0.3081 
     90 H90        29.9558   25.3638    1.4855 H         1 UNK         0.0719 
     91 H91        29.8722   28.1574    2.7506 H         1 UNK         0.0809 
     92 H92        29.9414   26.6486    3.6600 H         1 UNK         0.0809 
     93 H93        31.2600   27.0952    2.6044 H         1 UNK         0.0809 
     94 H94        27.8250   25.1590    1.8681 H         1 UNK         0.2990 
     95 H95        25.7462   26.0129    3.2540 H         1 UNK         0.0690 
     96 H96        23.6450   27.1378    2.4648 H         1 UNK         0.0788 
     97 H97        24.5971   28.1354    1.3646 H         1 UNK         0.0788 
     98 H98        24.8151   28.2835    3.0997 H         1 UNK         0.0788 
     99 H99        25.3552   24.4764    1.7220 H         1 UNK         0.2993 
    100 H100       24.0809   23.8350   -0.5775 H         1 UNK         0.0949 
    101 H101       24.4960   25.0576   -2.6894 H         1 UNK         0.0767 
    102 H102       26.2193   24.7187   -2.5875 H         1 UNK         0.0767 
    103 H103       25.0678   23.4048   -2.8309 H         1 UNK         0.0767 
    104 H104       26.9672   23.1724   -0.7788 H         1 UNK         0.3013 
    105 H105       31.2172   29.4228    0.5371 H         1 UNK         0.3121 
    106 H106       30.2493   31.6495   -1.1296 H         1 UNK         0.0774 
    107 H107       31.4971   33.2758    0.2778 H         1 UNK         0.0815 
    108 H108       32.3031   31.9764    1.1438 H         1 UNK         0.0815 
    109 H109       32.6369   32.2390   -0.5652 H         1 UNK         0.0815 
    110 H110       28.3308   32.1127   -0.3562 H         1 UNK         0.2987 
    111 H111       26.7968   30.5469    1.1222 H         1 UNK         0.0949 
    112 H112       26.4295   33.5478    0.6849 H         1 UNK         0.0806 
    113 H113       25.9339   32.2485   -0.4008 H         1 UNK         0.0806 
    114 H114       25.1506   32.4380    1.1576 H         1 UNK         0.0806 
    115 H115       27.5453   29.8115    3.0388 H         1 UNK         0.3010 
    116 H116       27.9601   29.5686    5.1889 H         1 UNK         0.0829 
    117 H117       25.5727   30.3027    5.4113 H         1 UNK         0.0813 
    118 H118       26.5158   30.7245    6.8294 H         1 UNK         0.0813 
    119 H119       26.1071   31.9656    5.6540 H         1 UNK         0.0813 
    120 H120       29.7048   31.4645    3.6426 H         1 UNK         0.3038 
    121 H121       30.9308   33.0650    5.8659 H         1 UNK         0.0769 
    122 H122       31.8037   34.5010    4.0299 H         1 UNK         0.0811 
    123 H123       30.0484   34.4273    3.9838 H         1 UNK         0.0811 
    124 H124       30.9989   33.4961    2.8310 H         1 UNK         0.0811 
    125 H125       31.5410   30.6763    3.2915 H         1 UNK         0.3204 
    126 H126       34.4257   30.6216    3.6976 H         1 UNK         0.0748 
    127 H127       34.2002   28.4886    2.2689 H         1 UNK         0.0771 
    128 H128       32.4800   28.8399    2.1666 H         1 UNK         0.0771 
    129 H129       33.6524   29.9737    1.5168 H         1 UNK         0.0771 
    130 H130       35.6221   28.8683    4.5508 H         1 UNK         0.2980 
    131 H131       36.3169   27.5148    6.1098 H         1 UNK         0.0545 
    132 H132       34.8373   30.2694    6.9086 H         1 UNK         0.3459 
    133 H133       34.9882   30.1608    8.6437 H         1 UNK         0.3459 
    134 H134       34.9836   25.6943    7.0998 H         1 UNK         0.0616 
    135 H135       33.5020   26.4076    6.5380 H         1 UNK         0.0616 
    136 H136       32.4265   24.8204    4.8744 H         1 UNK         0.0634 
    137 H137       32.6903   26.3782    4.1345 H         1 UNK         0.0634 
@<TRIPOS>BOND
     1    1    2 1    
     2    1   72 1    
     3    1   73 1    
     4    1   74 1    
     5    2    3 2    
     6    2    4 am   BACKBONE|DICT|INTERRES
     7    4    5 1    
     8    4   75 1    
     9    5    6 1    
    10    5   35 1    
    11    5   76 1    
    12    6    7 1    
    13    6   77 1    
    14    6   78 1    
    15    7    8 1    
    16    8    9 1    
    17    8   79 1    
    18    8   80 1    
    19    9   10 ar   
    20    9   14 ar   
    21   10   11 ar   
    22   10   81 1    
    23   11   12 ar   
    24   11   71 1    
    25   12   13 ar   
    26   12   82 1    
    27   13   14 ar   
    28   13   15 1    
    29   14   83 1    
    30   15   16 1    
    31   15   84 1    
    32   15   85 1    
    33   16   17 1    
    34   17   18 1    
    35   17   86 1    
    36   17   87 1    
    37   18   19 1    
    38   18   37 1    
    39   18   88 1    
    40   19   20 am   BACKBONE|DICT|INTERRES
    41   19   89 1    
    42   20   21 2    
    43   20   22 1    
    44   22   23 1    
    45   22   24 1    
    46   22   90 1    
    47   23   91 1    
    48   23   92 1    
    49   23   93 1    
    50   24   25 am   BACKBONE|DICT|INTERRES
    51   24   94 1    
    52   25   26 2    
    53   25   27 1    
    54   27   28 1    
    55   27   29 1    
    56   27   95 1    
    57   28   96 1    
    58   28   97 1    
    59   28   98 1    
    60   29   30 am   BACKBONE|DICT|INTERRES
    61   29   99 1    
    62   30   31 2    
    63   30   32 1    
    64   32   33 1    
    65   32   34 1    
    66   32  100 1    
    67   33  101 1    
    68   33  102 1    
    69   33  103 1    
    70   34   35 am   BACKBONE|DICT|INTERRES
    71   34  104 1    
    72   35   36 2    
    73   37   38 2    
    74   37   39 am   BACKBONE|DICT|INTERRES
    75   39   40 1    
    76   39  105 1    
    77   40   41 1    
    78   40   42 1    
    79   40  106 1    
    80   41  107 1    
    81   41  108 1    
    82   41  109 1    
    83   42   43 2    
    84   42   44 am   BACKBONE|DICT|INTERRES
    85   44   45 1    
    86   44  110 1    
    87   45   46 1    
    88   45   47 1    
    89   45  111 1    
    90   46  112 1    
    91   46  113 1    
    92   46  114 1    
    93   47   48 2    
    94   47   49 am   BACKBONE|DICT|INTERRES
    95   49   50 1    
    96   49  115 1    
    97   50   51 1    
    98   50   52 1    
    99   50  116 1    
   100   51  117 1    
   101   51  118 1    
   102   51  119 1    
   103   52   53 2    
   104   52   54 am   BACKBONE|DICT|INTERRES
   105   54   55 1    
   106   54  120 1    
   107   55   56 1    
   108   55   57 1    
   109   55  121 1    
   110   56  122 1    
   111   56  123 1    
   112   56  124 1    
   113   57   58 2    
   114   57   59 am   BACKBONE|DICT|INTERRES
   115   59   60 1    
   116   59  125 1    
   117   60   61 1    
   118   60   62 1    
   119   60  126 1    
   120   61  127 1    
   121   61  128 1    
   122   61  129 1    
   123   62   63 2    
   124   62   64 am   BACKBONE|DICT|INTERRES
   125   64   65 1    
   126   64  130 1    
   127   65   66 1    
   128   65   69 1    
   129   65  131 1    
   130   66   67 am   BACKBONE|DICT|INTERRES
   131   66   68 2    
   132   67  132 1    
   133   67  133 1    
   134   69   70 1    
   135   69  134 1    
   136   69  135 1    
   137   70   71 1    
   138   71  136 1    
   139   71  137 1    
@<TRIPOS>SUBSTRUCTURE
     1 UNK         1 GROUP             0       ****    0 ROOT    
