@<TRIPOS>MOLECULE
3R136
137   139    1
SMALL
USER_CHARGES


@<TRIPOS>ATOM
      1 CA         29.1252   26.2674    2.9657 C.3       0 UNK        -0.1979 
      2 C          28.5187   24.8779    3.0537 C.2       0 UNK         0.4864 
      3 O          28.1365   24.4299    4.1421 O.2       0 UNK        -0.5359 
      4 N          28.4077   24.2094    1.9002 N.am      1 UNK        -0.4318 
      5 CA         27.7812   22.9005    1.7407 C.3       1 UNK         0.0824 
      6 C6         28.6872   21.9241    0.9504 C.3       12 UNK        -0.0944 
      7 S7         29.9878   21.2260    2.0205 S.3       12 UNK        -0.2672 
      8 C8         31.5169   21.6505    1.1239 C.3       12 UNK         0.0333 
      9 C9         32.0175   23.0675    1.3881 C.ar      12 UNK        -0.0807 
     10 C10        32.1775   23.5393    2.6970 C.ar      12 UNK        -0.0894 
     11 C11        32.7327   24.8002    2.9392 C.ar      12 UNK        -0.0804 
     12 C12        33.1278   25.5941    1.8577 C.ar      12 UNK        -0.0824 
     13 C13        32.9724   25.1373    0.5457 C.ar      12 UNK        -0.0762 
     14 C14        32.4129   23.8760    0.3176 C.ar      12 UNK        -0.0782 
     15 C15        33.4528   25.9881   -0.6228 C.3       12 UNK         0.0230 
     16 S16        32.0919   26.5052   -1.7139 S.3       12 UNK        -0.2608 
     17 C17        31.0736   27.4814   -0.5588 C.3       12 UNK        -0.0989 
     18 CA         29.8693   28.1715   -1.2594 C.3       5 UNK         0.0716 
     19 N          29.0423   27.2451   -2.0428 N.am      5 UNK        -0.4135 
     20 C          28.3530   26.2014   -1.5660 C.2       4 UNK         0.5031 
     21 O          28.3239   25.8668   -0.3794 O.2       4 UNK        -0.5229 
     22 CA         27.6090   25.3533   -2.6053 C.3       4 UNK         0.0329 
     23 CB         28.2873   23.9850   -2.7782 C.3       4 UNK        -0.2001 
     24 N          26.2170   25.1649   -2.1998 N.am      4 UNK        -0.4303 
     25 C          25.2373   26.0369   -2.4811 C.2       3 UNK         0.5044 
     26 O          25.4099   27.0595   -3.1464 O.2       3 UNK        -0.5152 
     27 CA         23.8180   25.7245   -1.9697 C.3       3 UNK         0.0319 
     28 CB         22.9597   25.1302   -3.0987 C.3       3 UNK        -0.2001 
     29 N          23.7902   24.8153   -0.8240 N.am      3 UNK        -0.4354 
     30 C          24.1408   25.1487    0.4244 C.2       2 UNK         0.4964 
     31 O          24.4921   26.2798    0.7609 O.2       2 UNK        -0.5047 
     32 CA         24.1060   24.0323    1.4842 C.3       2 UNK         0.0288 
     33 CB         23.2606   22.8003    1.0840 C.3       2 UNK        -0.2113 
     34 N          25.4623   23.6312    1.8700 N.am      2 UNK        -0.4145 
     35 C          26.4230   23.1472    1.0670 C.2       1 UNK         0.5006 
     36 O          26.2781   22.9412   -0.1410 O.2       1 UNK        -0.5103 
     37 C          28.9955   29.0393   -0.3203 C.2       5 UNK         0.5055 
     38 O          27.8693   29.3788   -0.6935 O.2       5 UNK        -0.5220 
     39 N          29.5187   29.4216    0.8523 N.am      6 UNK        -0.4450 
     40 CA         28.8278   30.2333    1.8493 C.3       6 UNK         0.0367 
     41 CB         28.9679   31.7275    1.5101 C.3       6 UNK        -0.1929 
     42 C          29.4239   29.9187    3.2227 C.2       6 UNK         0.5070 
     43 O          30.6454   30.0019    3.3831 O.2       6 UNK        -0.5237 
     44 N          28.5578   29.5624    4.1801 N.am      7 UNK        -0.4739 
     45 CA         28.9220   29.2144    5.5558 C.3       7 UNK         0.0276 
     46 CB         27.6671   28.7652    6.3200 C.3       7 UNK        -0.1927 
     47 C          29.6119   30.3822    6.2738 C.2       7 UNK         0.5013 
     48 O          29.1270   31.5139    6.1956 O.2       7 UNK        -0.5193 
     49 N          30.7481   30.0854    6.9185 N.am      8 UNK        -0.4253 
     50 CA         31.6993   30.9974    7.5718 C.3       8 UNK         0.0242 
     51 CB         31.0472   31.7661    8.7377 C.3       8 UNK        -0.2000 
     52 C          32.4210   31.9571    6.6062 C.2       8 UNK         0.4948 
     53 O          33.6406   32.0886    6.7012 O.2       8 UNK        -0.5275 
     54 N          31.6755   32.5920    5.6930 N.am      9 UNK        -0.4246 
     55 CA         32.1623   33.5550    4.7041 C.3       9 UNK         0.0261 
     56 CB         30.9717   34.1551    3.9408 C.3       9 UNK        -0.1959 
     57 C          33.2027   32.9689    3.7358 C.2       9 UNK         0.5033 
     58 O          34.2391   33.6005    3.5224 O.2       9 UNK        -0.5390 
     59 N          32.9276   31.7758    3.1900 N.am      10 UNK        -0.4215 
     60 CA         33.8847   31.0206    2.3774 C.3       10 UNK         0.0240 
     61 CB         33.1415   30.2854    1.2514 C.3       10 UNK        -0.1982 
     62 C          34.6704   30.0158    3.2331 C.2       10 UNK         0.4970 
     63 O          35.8437   29.7738    2.9472 O.2       10 UNK        -0.4916 
     64 N          34.0070   29.4310    4.2405 N.am      11 UNK        -0.4279 
     65 CA         34.5621   28.3744    5.1008 C.3       11 UNK         0.1003 
     66 C          35.6782   28.8362    6.0796 C.2       11 UNK         0.5709 
     67 N          35.7422   30.1014    6.4739 N.am      11 UNK        -0.7358 
     68 O          36.5097   28.0262    6.4825 O.2       11 UNK        -0.4999 
     69 C69        33.4505   27.5984    5.8541 C.3       12 UNK        -0.0954 
     70 S70        32.2135   26.8844    4.7199 S.3       12 UNK        -0.2268 
     71 C71        32.9828   25.2708    4.3666 C.3       12 UNK         0.0203 
     72 H72        29.2357   26.6977    3.9598 H         1 UNK         0.0888 
     73 H73        30.1119   26.2234    2.5040 H         1 UNK         0.0888 
     74 H74        28.4882   26.9249    2.3723 H         1 UNK         0.0888 
     75 H75        28.6097   24.7020    1.0267 H         1 UNK         0.3017 
     76 H76        27.5693   22.4473    2.7119 H         1 UNK         0.0873 
     77 H77        29.1310   22.4167    0.0841 H         1 UNK         0.0745 
     78 H78        28.1099   21.0817    0.5632 H         1 UNK         0.0745 
     79 H79        32.2975   20.9552    1.4360 H         1 UNK         0.0705 
     80 H80        31.3669   21.4759    0.0572 H         1 UNK         0.0705 
     81 H81        31.8963   22.9079    3.5287 H         1 UNK         0.1334 
     82 H82        33.5757   26.5610    2.0437 H         1 UNK         0.1417 
     83 H83        32.3116   23.5172   -0.6980 H         1 UNK         0.1562 
     84 H84        34.1733   25.4143   -1.2073 H         1 UNK         0.0748 
     85 H85        33.9822   26.8749   -0.2705 H         1 UNK         0.0748 
     86 H86        31.7316   28.2215   -0.1070 H         1 UNK         0.0940 
     87 H87        30.7319   26.8256    0.2435 H         1 UNK         0.0940 
     88 H88        30.2826   28.8738   -1.9851 H         1 UNK         0.0703 
     89 H89        28.9823   27.4507   -3.0292 H         1 UNK         0.3081 
     90 H90        27.6383   25.8597   -3.5728 H         1 UNK         0.0719 
     91 H91        28.2820   23.4121   -1.8518 H         1 UNK         0.0809 
     92 H92        27.7884   23.3889   -3.5424 H         1 UNK         0.0809 
     93 H93        29.3284   24.1017   -3.0826 H         1 UNK         0.0809 
     94 H94        26.0289   24.3818   -1.5815 H         1 UNK         0.2990 
     95 H95        23.3672   26.6714   -1.6644 H         1 UNK         0.0690 
     96 H96        21.9295   24.9767   -2.7763 H         1 UNK         0.0788 
     97 H97        23.3518   24.1722   -3.4428 H         1 UNK         0.0788 
     98 H98        22.9308   25.7987   -3.9605 H         1 UNK         0.0788 
     99 H99        23.5429   23.8539   -1.0087 H         1 UNK         0.2993 
    100 H100       23.6456   24.4717    2.3707 H         1 UNK         0.0949 
    101 H101       22.2432   23.0914    0.8183 H         1 UNK         0.0767 
    102 H102       23.6829   22.2571    0.2381 H         1 UNK         0.0767 
    103 H103       23.1828   22.0981    1.9141 H         1 UNK         0.0767 
    104 H104       25.7107   23.8168    2.8326 H         1 UNK         0.3013 
    105 H105       30.4365   29.1051    1.1319 H         1 UNK         0.3121 
    106 H106       27.7676   29.9692    1.8569 H         1 UNK         0.0774 
    107 H107       28.4874   32.3465    2.2689 H         1 UNK         0.0815 
    108 H108       28.4963   31.9635    0.5561 H         1 UNK         0.0815 
    109 H109       30.0143   32.0288    1.4476 H         1 UNK         0.0815 
    110 H110       27.5709   29.5616    3.9667 H         1 UNK         0.2987 
    111 H111       29.6175   28.3744    5.5116 H         1 UNK         0.0949 
    112 H112       26.9230   29.5611    6.3767 H         1 UNK         0.0806 
    113 H113       27.2013   27.9006    5.8460 H         1 UNK         0.0806 
    114 H114       27.9149   28.4775    7.3428 H         1 UNK         0.0806 
    115 H115       31.0400   29.1183    6.9040 H         1 UNK         0.3010 
    116 H116       32.4709   30.3561    8.0017 H         1 UNK         0.0829 
    117 H117       30.2752   32.4562    8.3960 H         1 UNK         0.0813 
    118 H118       30.5926   31.0842    9.4563 H         1 UNK         0.0813 
    119 H119       31.7905   32.3559    9.2759 H         1 UNK         0.0813 
    120 H120       30.6757   32.4009    5.7062 H         1 UNK         0.3038 
    121 H121       32.6502   34.3626    5.2540 H         1 UNK         0.0769 
    122 H122       31.3077   34.8590    3.1779 H         1 UNK         0.0811 
    123 H123       30.3855   33.3843    3.4425 H         1 UNK         0.0811 
    124 H124       30.3055   34.6982    4.6113 H         1 UNK         0.0811 
    125 H125       32.0427   31.3170    3.3955 H         1 UNK         0.3204 
    126 H126       34.6005   31.7021    1.9125 H         1 UNK         0.0748 
    127 H127       32.5072   29.4941    1.6488 H         1 UNK         0.0771 
    128 H128       32.5170   30.9655    0.6713 H         1 UNK         0.0771 
    129 H129       33.8464   29.8192    0.5615 H         1 UNK         0.0771 
    130 H130       33.0321   29.6520    4.3783 H         1 UNK         0.2980 
    131 H131       35.0453   27.6595    4.4315 H         1 UNK         0.0545 
    132 H132       36.4799   30.3773    7.1017 H         1 UNK         0.3459 
    133 H133       35.0247   30.7742    6.2253 H         1 UNK         0.3459 
    134 H134       33.8763   26.7953    6.4591 H         1 UNK         0.0616 
    135 H135       32.9361   28.2586    6.5523 H         1 UNK         0.0616 
    136 H136       34.0617   25.3319    4.5146 H         1 UNK         0.0634 
    137 H137       32.6124   24.5442    5.0913 H         1 UNK         0.0634 
@<TRIPOS>BOND
     1    1    2 1    
     2    1   72 1    
     3    1   73 1    
     4    1   74 1    
     5    2    3 2    
     6    2    4 am   BACKBONE|DICT|INTERRES
     7    4    5 1    
     8    4   75 1    
     9    5    6 1    
    10    5   35 1    
    11    5   76 1    
    12    6    7 1    
    13    6   77 1    
    14    6   78 1    
    15    7    8 1    
    16    8    9 1    
    17    8   79 1    
    18    8   80 1    
    19    9   10 ar   
    20    9   14 ar   
    21   10   11 ar   
    22   10   81 1    
    23   11   12 ar   
    24   11   71 1    
    25   12   13 ar   
    26   12   82 1    
    27   13   14 ar   
    28   13   15 1    
    29   14   83 1    
    30   15   16 1    
    31   15   84 1    
    32   15   85 1    
    33   16   17 1    
    34   17   18 1    
    35   17   86 1    
    36   17   87 1    
    37   18   19 1    
    38   18   37 1    
    39   18   88 1    
    40   19   20 am   BACKBONE|DICT|INTERRES
    41   19   89 1    
    42   20   21 2    
    43   20   22 1    
    44   22   23 1    
    45   22   24 1    
    46   22   90 1    
    47   23   91 1    
    48   23   92 1    
    49   23   93 1    
    50   24   25 am   BACKBONE|DICT|INTERRES
    51   24   94 1    
    52   25   26 2    
    53   25   27 1    
    54   27   28 1    
    55   27   29 1    
    56   27   95 1    
    57   28   96 1    
    58   28   97 1    
    59   28   98 1    
    60   29   30 am   BACKBONE|DICT|INTERRES
    61   29   99 1    
    62   30   31 2    
    63   30   32 1    
    64   32   33 1    
    65   32   34 1    
    66   32  100 1    
    67   33  101 1    
    68   33  102 1    
    69   33  103 1    
    70   34   35 am   BACKBONE|DICT|INTERRES
    71   34  104 1    
    72   35   36 2    
    73   37   38 2    
    74   37   39 am   BACKBONE|DICT|INTERRES
    75   39   40 1    
    76   39  105 1    
    77   40   41 1    
    78   40   42 1    
    79   40  106 1    
    80   41  107 1    
    81   41  108 1    
    82   41  109 1    
    83   42   43 2    
    84   42   44 am   BACKBONE|DICT|INTERRES
    85   44   45 1    
    86   44  110 1    
    87   45   46 1    
    88   45   47 1    
    89   45  111 1    
    90   46  112 1    
    91   46  113 1    
    92   46  114 1    
    93   47   48 2    
    94   47   49 am   BACKBONE|DICT|INTERRES
    95   49   50 1    
    96   49  115 1    
    97   50   51 1    
    98   50   52 1    
    99   50  116 1    
   100   51  117 1    
   101   51  118 1    
   102   51  119 1    
   103   52   53 2    
   104   52   54 am   BACKBONE|DICT|INTERRES
   105   54   55 1    
   106   54  120 1    
   107   55   56 1    
   108   55   57 1    
   109   55  121 1    
   110   56  122 1    
   111   56  123 1    
   112   56  124 1    
   113   57   58 2    
   114   57   59 am   BACKBONE|DICT|INTERRES
   115   59   60 1    
   116   59  125 1    
   117   60   61 1    
   118   60   62 1    
   119   60  126 1    
   120   61  127 1    
   121   61  128 1    
   122   61  129 1    
   123   62   63 2    
   124   62   64 am   BACKBONE|DICT|INTERRES
   125   64   65 1    
   126   64  130 1    
   127   65   66 1    
   128   65   69 1    
   129   65  131 1    
   130   66   67 am   BACKBONE|DICT|INTERRES
   131   66   68 2    
   132   67  132 1    
   133   67  133 1    
   134   69   70 1    
   135   69  134 1    
   136   69  135 1    
   137   70   71 1    
   138   71  136 1    
   139   71  137 1    
@<TRIPOS>SUBSTRUCTURE
     1 UNK         1 GROUP             0       ****    0 ROOT    
