@<TRIPOS>MOLECULE
3R136
137   139    1
SMALL
USER_CHARGES


@<TRIPOS>ATOM
      1 CA         34.3354   26.6502   -0.7721 C.3       0 UNK        -0.1979 
      2 C          32.9362   27.2034   -0.5445 C.2       0 UNK         0.4864 
      3 O          32.7445   28.4194   -0.5827 O.2       0 UNK        -0.5359 
      4 N          31.9609   26.3190   -0.3045 N.am      1 UNK        -0.4318 
      5 CA         30.5450   26.6613   -0.1624 C.3       1 UNK         0.0824 
      6 C6         29.7928   25.6566    0.7510 C.3       12 UNK        -0.0944 
      7 S7         29.8041   23.9217    0.1797 S.3       12 UNK        -0.2672 
      8 C8         31.1856   23.2007    1.1289 C.3       12 UNK         0.0333 
      9 C9         30.9199   23.1572    2.6277 C.ar      12 UNK        -0.0807 
     10 C10        31.7660   23.8301    3.5173 C.ar      12 UNK        -0.0894 
     11 C11        31.5503   23.7497    4.8968 C.ar      12 UNK        -0.0804 
     12 C12        30.4619   23.0178    5.3806 C.ar      12 UNK        -0.0824 
     13 C13        29.6018   22.3526    4.5025 C.ar      12 UNK        -0.0762 
     14 C14        29.8489   22.4102    3.1277 C.ar      12 UNK        -0.0782 
     15 C15        28.4231   21.5563    5.0507 C.3       12 UNK         0.0230 
     16 S16        26.8247   22.0347    4.3136 S.3       12 UNK        -0.2608 
     17 C17        26.7606   23.8336    4.6344 C.3       12 UNK        -0.0989 
     18 CA         26.8286   24.6649    3.3200 C.3       5 UNK         0.0716 
     19 N          25.7924   24.3037    2.3428 N.am      5 UNK        -0.4135 
     20 C          24.4644   24.3985    2.5028 C.2       4 UNK         0.5031 
     21 O          23.9246   24.7865    3.5407 O.2       4 UNK        -0.5229 
     22 CA         23.5950   24.0192    1.2816 C.3       4 UNK         0.0329 
     23 CB         22.2021   24.6830    1.3313 C.3       4 UNK        -0.2001 
     24 N          24.2210   24.2774   -0.0273 N.am      4 UNK        -0.4303 
     25 C          24.7443   25.4375   -0.4495 C.2       3 UNK         0.5044 
     26 O          24.8606   26.4400    0.2596 O.2       3 UNK        -0.5152 
     27 CA         25.2198   25.4919   -1.9041 C.3       3 UNK         0.0319 
     28 CB         24.0366   25.8063   -2.8412 C.3       3 UNK        -0.2001 
     29 N          26.2410   26.5305   -1.9858 N.am      3 UNK        -0.4354 
     30 C          27.0345   26.8060   -3.0255 C.2       2 UNK         0.4964 
     31 O          27.0039   26.2094   -4.1023 O.2       2 UNK        -0.5047 
     32 CA         28.0550   27.9306   -2.8039 C.3       2 UNK         0.0288 
     33 CB         27.3620   29.2991   -2.6840 C.3       2 UNK        -0.2113 
     34 N          28.8503   27.6784   -1.6028 N.am      2 UNK        -0.4145 
     35 C          29.8864   26.8335   -1.5461 C.2       1 UNK         0.5006 
     36 O          30.3200   26.2127   -2.5217 O.2       1 UNK        -0.5103 
     37 C          26.9256   26.1891    3.5853 C.2       5 UNK         0.5055 
     38 O          27.5943   26.5848    4.5417 O.2       5 UNK        -0.5220 
     39 N          26.3019   27.0303    2.7434 N.am      6 UNK        -0.4450 
     40 CA         26.4484   28.4860    2.7819 C.3       6 UNK         0.0367 
     41 CB         25.2221   29.1518    2.1373 C.3       6 UNK        -0.1929 
     42 C          27.7320   28.8751    2.0393 C.2       6 UNK         0.5070 
     43 O          27.9237   28.4454    0.8993 O.2       6 UNK        -0.5237 
     44 N          28.5877   29.6663    2.6886 N.am      7 UNK        -0.4739 
     45 CA         29.9050   30.0550    2.1931 C.3       7 UNK         0.0276 
     46 CB         30.9486   29.0626    2.7389 C.3       7 UNK        -0.1927 
     47 C          30.2320   31.4802    2.6542 C.2       7 UNK         0.5013 
     48 O          29.5875   31.9957    3.5723 O.2       7 UNK        -0.5193 
     49 N          31.2548   32.0685    2.0295 N.am      8 UNK        -0.4253 
     50 CA         31.8919   33.3184    2.4298 C.3       8 UNK         0.0242 
     51 CB         31.4580   34.4515    1.4855 C.3       8 UNK        -0.2000 
     52 C          33.4033   33.0845    2.3562 C.2       8 UNK         0.4948 
     53 O          33.8540   32.3669    1.4576 O.2       8 UNK        -0.5275 
     54 N          34.1528   33.6622    3.3058 N.am      9 UNK        -0.4246 
     55 CA         35.5960   33.4973    3.5555 C.3       9 UNK         0.0261 
     56 CB         36.4481   33.9748    2.3622 C.3       9 UNK        -0.1959 
     57 C          35.9853   32.0725    3.9978 C.2       9 UNK         0.5033 
     58 O          36.6036   31.9126    5.0516 O.2       9 UNK        -0.5390 
     59 N          35.5894   31.0670    3.2100 N.am      10 UNK        -0.4215 
     60 CA         35.6159   29.6497    3.5650 C.3       10 UNK         0.0240 
     61 CB         35.4317   28.8158    2.2866 C.3       10 UNK        -0.1982 
     62 C          34.5079   29.3231    4.5805 C.2       10 UNK         0.4970 
     63 O          33.4919   30.0202    4.6241 O.2       10 UNK        -0.4916 
     64 N          34.7192   28.2543    5.3584 N.am      11 UNK        -0.4279 
     65 CA         33.8001   27.7584    6.3986 C.3       11 UNK         0.1003 
     66 C          33.6111   28.7187    7.6183 C.2       11 UNK         0.5709 
     67 N          34.4868   29.6949    7.8299 N.am      11 UNK        -0.7358 
     68 O          32.6818   28.5660    8.4071 O.2       11 UNK        -0.4999 
     69 C69        32.4631   27.2260    5.7947 C.3       12 UNK        -0.0954 
     70 S70        31.7783   25.8223    6.7359 S.3       12 UNK        -0.2268 
     71 C71        32.5171   24.3977    5.8781 C.3       12 UNK         0.0203 
     72 H72        34.6719   26.8894   -1.7804 H         1 UNK         0.0888 
     73 H73        35.0363   27.0931   -0.0661 H         1 UNK         0.0888 
     74 H74        34.3712   25.5678   -0.6501 H         1 UNK         0.0888 
     75 H75        32.1582   25.3311   -0.3558 H         1 UNK         0.3017 
     76 H76        30.4884   27.6366    0.3216 H         1 UNK         0.0873 
     77 H77        30.2024   25.7056    1.7604 H         1 UNK         0.0745 
     78 H78        28.7491   25.9553    0.8551 H         1 UNK         0.0745 
     79 H79        31.3542   22.1826    0.7753 H         1 UNK         0.0705 
     80 H80        32.1018   23.7506    0.9126 H         1 UNK         0.0705 
     81 H81        32.6078   24.3942    3.1391 H         1 UNK         0.1334 
     82 H82        30.2941   22.9607    6.4477 H         1 UNK         0.1417 
     83 H83        29.1968   21.8843    2.4433 H         1 UNK         0.1562 
     84 H84        28.3502   21.6661    6.1339 H         1 UNK         0.0748 
     85 H85        28.5948   20.4960    4.8609 H         1 UNK         0.0748 
     86 H86        27.5784   24.1039    5.3048 H         1 UNK         0.0940 
     87 H87        25.8458   24.0546    5.1859 H         1 UNK         0.0940 
     88 H88        27.7735   24.4156    2.8355 H         1 UNK         0.0703 
     89 H89        26.1331   23.9694    1.4534 H         1 UNK         0.3081 
     90 H90        23.4493   22.9397    1.3445 H         1 UNK         0.0719 
     91 H91        22.2760   25.7712    1.3231 H         1 UNK         0.0809 
     92 H92        21.5880   24.3825    0.4825 H         1 UNK         0.0809 
     93 H93        21.6609   24.3994    2.2349 H         1 UNK         0.0809 
     94 H94        24.1948   23.5046   -0.6790 H         1 UNK         0.2990 
     95 H95        25.6684   24.5333   -2.1722 H         1 UNK         0.0690 
     96 H96        24.3394   25.8080   -3.8881 H         1 UNK         0.0788 
     97 H97        23.5976   26.7798   -2.6187 H         1 UNK         0.0788 
     98 H98        23.2463   25.0613   -2.7401 H         1 UNK         0.0788 
     99 H99        26.3325   27.0698   -1.1320 H         1 UNK         0.2993 
    100 H100       28.7182   27.9603   -3.6716 H         1 UNK         0.0949 
    101 H101       26.7431   29.5013   -3.5593 H         1 UNK         0.0767 
    102 H102       26.7173   29.3559   -1.8057 H         1 UNK         0.0767 
    103 H103       28.0931   30.1045   -2.6110 H         1 UNK         0.0767 
    104 H104       28.5202   28.0974   -0.7321 H         1 UNK         0.3013 
    105 H105       25.7945   26.6598    1.9441 H         1 UNK         0.3121 
    106 H106       26.5088   28.8158    3.8215 H         1 UNK         0.0774 
    107 H107       24.2968   28.8247    2.6116 H         1 UNK         0.0815 
    108 H108       25.2743   30.2366    2.2359 H         1 UNK         0.0815 
    109 H109       25.1498   28.9279    1.0725 H         1 UNK         0.0815 
    110 H110       28.3400   30.0584    3.5884 H         1 UNK         0.2987 
    111 H111       29.9130   30.0388    1.1006 H         1 UNK         0.0949 
    112 H112       31.9229   29.2162    2.2733 H         1 UNK         0.0806 
    113 H113       31.0780   29.1837    3.8141 H         1 UNK         0.0806 
    114 H114       30.6620   28.0266    2.5665 H         1 UNK         0.0806 
    115 H115       31.7774   31.5500    1.3337 H         1 UNK         0.3010 
    116 H116       31.6196   33.5719    3.4570 H         1 UNK         0.0829 
    117 H117       30.3791   34.6036    1.5212 H         1 UNK         0.0813 
    118 H118       31.9289   35.3949    1.7648 H         1 UNK         0.0813 
    119 H119       31.7325   34.2420    0.4507 H         1 UNK         0.0813 
    120 H120       33.6710   34.2169    4.0006 H         1 UNK         0.3038 
    121 H121       35.8237   34.1556    4.3957 H         1 UNK         0.0769 
    122 H122       36.2999   33.3598    1.4743 H         1 UNK         0.0811 
    123 H123       37.5106   33.9363    2.6060 H         1 UNK         0.0811 
    124 H124       36.2142   35.0058    2.0970 H         1 UNK         0.0811 
    125 H125       35.0228   31.3270    2.4044 H         1 UNK         0.3204 
    126 H126       36.5866   29.4172    4.0080 H         1 UNK         0.0748 
    127 H127       36.2227   29.0188    1.5643 H         1 UNK         0.0771 
    128 H128       35.4589   27.7474    2.5048 H         1 UNK         0.0771 
    129 H129       34.4765   29.0266    1.8029 H         1 UNK         0.0771 
    130 H130       35.5861   27.7448    5.2647 H         1 UNK         0.2980 
    131 H131       34.3305   26.9025    6.8172 H         1 UNK         0.0545 
    132 H132       34.3629   30.3022    8.6244 H         1 UNK         0.3459 
    133 H133       35.2554   29.8435    7.1958 H         1 UNK         0.3459 
    134 H134       31.7139   28.0177    5.7568 H         1 UNK         0.0616 
    135 H135       32.6019   26.9024    4.7618 H         1 UNK         0.0616 
    136 H136       33.4420   24.6955    5.3817 H         1 UNK         0.0634 
    137 H137       32.8048   23.6583    6.6269 H         1 UNK         0.0634 
@<TRIPOS>BOND
     1    1    2 1    
     2    1   72 1    
     3    1   73 1    
     4    1   74 1    
     5    2    3 2    
     6    2    4 am   BACKBONE|DICT|INTERRES
     7    4    5 1    
     8    4   75 1    
     9    5    6 1    
    10    5   35 1    
    11    5   76 1    
    12    6    7 1    
    13    6   77 1    
    14    6   78 1    
    15    7    8 1    
    16    8    9 1    
    17    8   79 1    
    18    8   80 1    
    19    9   10 ar   
    20    9   14 ar   
    21   10   11 ar   
    22   10   81 1    
    23   11   12 ar   
    24   11   71 1    
    25   12   13 ar   
    26   12   82 1    
    27   13   14 ar   
    28   13   15 1    
    29   14   83 1    
    30   15   16 1    
    31   15   84 1    
    32   15   85 1    
    33   16   17 1    
    34   17   18 1    
    35   17   86 1    
    36   17   87 1    
    37   18   19 1    
    38   18   37 1    
    39   18   88 1    
    40   19   20 am   BACKBONE|DICT|INTERRES
    41   19   89 1    
    42   20   21 2    
    43   20   22 1    
    44   22   23 1    
    45   22   24 1    
    46   22   90 1    
    47   23   91 1    
    48   23   92 1    
    49   23   93 1    
    50   24   25 am   BACKBONE|DICT|INTERRES
    51   24   94 1    
    52   25   26 2    
    53   25   27 1    
    54   27   28 1    
    55   27   29 1    
    56   27   95 1    
    57   28   96 1    
    58   28   97 1    
    59   28   98 1    
    60   29   30 am   BACKBONE|DICT|INTERRES
    61   29   99 1    
    62   30   31 2    
    63   30   32 1    
    64   32   33 1    
    65   32   34 1    
    66   32  100 1    
    67   33  101 1    
    68   33  102 1    
    69   33  103 1    
    70   34   35 am   BACKBONE|DICT|INTERRES
    71   34  104 1    
    72   35   36 2    
    73   37   38 2    
    74   37   39 am   BACKBONE|DICT|INTERRES
    75   39   40 1    
    76   39  105 1    
    77   40   41 1    
    78   40   42 1    
    79   40  106 1    
    80   41  107 1    
    81   41  108 1    
    82   41  109 1    
    83   42   43 2    
    84   42   44 am   BACKBONE|DICT|INTERRES
    85   44   45 1    
    86   44  110 1    
    87   45   46 1    
    88   45   47 1    
    89   45  111 1    
    90   46  112 1    
    91   46  113 1    
    92   46  114 1    
    93   47   48 2    
    94   47   49 am   BACKBONE|DICT|INTERRES
    95   49   50 1    
    96   49  115 1    
    97   50   51 1    
    98   50   52 1    
    99   50  116 1    
   100   51  117 1    
   101   51  118 1    
   102   51  119 1    
   103   52   53 2    
   104   52   54 am   BACKBONE|DICT|INTERRES
   105   54   55 1    
   106   54  120 1    
   107   55   56 1    
   108   55   57 1    
   109   55  121 1    
   110   56  122 1    
   111   56  123 1    
   112   56  124 1    
   113   57   58 2    
   114   57   59 am   BACKBONE|DICT|INTERRES
   115   59   60 1    
   116   59  125 1    
   117   60   61 1    
   118   60   62 1    
   119   60  126 1    
   120   61  127 1    
   121   61  128 1    
   122   61  129 1    
   123   62   63 2    
   124   62   64 am   BACKBONE|DICT|INTERRES
   125   64   65 1    
   126   64  130 1    
   127   65   66 1    
   128   65   69 1    
   129   65  131 1    
   130   66   67 am   BACKBONE|DICT|INTERRES
   131   66   68 2    
   132   67  132 1    
   133   67  133 1    
   134   69   70 1    
   135   69  134 1    
   136   69  135 1    
   137   70   71 1    
   138   71  136 1    
   139   71  137 1    
@<TRIPOS>SUBSTRUCTURE
     1 UNK         1 GROUP             0       ****    0 ROOT    
