@<TRIPOS>MOLECULE
3R136
137   139    1
SMALL
USER_CHARGES


@<TRIPOS>ATOM
      1 CA         25.9983   28.5212   -1.4307 C.3       0 UNK        -0.1979 
      2 C          26.6992   27.2279   -1.0487 C.2       0 UNK         0.4864 
      3 O          26.0722   26.3365   -0.4768 O.2       0 UNK        -0.5359 
      4 N          27.9903   27.0923   -1.3771 N.am      1 UNK        -0.4318 
      5 CA         28.8370   25.9287   -1.0637 C.3       1 UNK         0.0824 
      6 C6         30.3268   26.2270   -1.3502 C.3       12 UNK        -0.0944 
      7 S7         30.9933   27.4782   -0.1970 S.3       12 UNK        -0.2672 
      8 C8         32.4326   26.6067    0.5043 C.3       12 UNK         0.0333 
      9 C9         32.1069   25.8564    1.7906 C.ar      12 UNK        -0.0807 
     10 C10        32.7222   26.2364    2.9884 C.ar      12 UNK        -0.0894 
     11 C11        32.4902   25.5208    4.1662 C.ar      12 UNK        -0.0804 
     12 C12        31.6105   24.4374    4.1501 C.ar      12 UNK        -0.0824 
     13 C13        30.9702   24.0593    2.9666 C.ar      12 UNK        -0.0762 
     14 C14        31.2359   24.7598    1.7856 C.ar      12 UNK        -0.0782 
     15 C15        29.9976   22.8865    2.9762 C.3       12 UNK         0.0230 
     16 S16        28.2669   23.3785    2.6693 S.3       12 UNK        -0.2608 
     17 C17        28.0224   24.8162    3.7731 C.3       12 UNK        -0.0989 
     18 CA         27.6446   26.0645    2.9270 C.3       5 UNK         0.0716 
     19 N          26.3005   25.9672    2.3397 N.am      5 UNK        -0.4135 
     20 C          25.1324   25.8449    2.9874 C.2       4 UNK         0.5031 
     21 O          25.0075   25.7953    4.2125 O.2       4 UNK        -0.5229 
     22 CA         23.8766   25.7355    2.1075 C.3       4 UNK         0.0329 
     23 CB         23.3974   27.1285    1.6663 C.3       4 UNK        -0.2001 
     24 N          24.0797   24.8881    0.9284 N.am      4 UNK        -0.4303 
     25 C          24.1694   23.5518    0.9647 C.2       3 UNK         0.5044 
     26 O          24.1025   22.8916    2.0022 O.2       3 UNK        -0.5152 
     27 CA         24.3074   22.8148   -0.3745 C.3       3 UNK         0.0319 
     28 CB         22.9269   22.6856   -1.0513 C.3       3 UNK        -0.2001 
     29 N          25.2803   23.4240   -1.2917 N.am      3 UNK        -0.4354 
     30 C          25.8273   22.7592   -2.3250 C.2       2 UNK         0.4964 
     31 O          25.5915   21.5748   -2.5696 O.2       2 UNK        -0.5047 
     32 CA         26.7802   23.5149   -3.2722 C.3       2 UNK         0.0288 
     33 CB         26.0251   23.9787   -4.5292 C.3       2 UNK        -0.2113 
     34 N          27.4326   24.6690   -2.6595 N.am      2 UNK        -0.4145 
     35 C          28.3854   24.6037   -1.7202 C.2       1 UNK         0.5006 
     36 O          28.8932   23.5462   -1.3441 O.2       1 UNK        -0.5103 
     37 C          27.8997   27.4076    3.6467 C.2       5 UNK         0.5055 
     38 O          26.9780   28.2019    3.8482 O.2       5 UNK        -0.5220 
     39 N          29.1814   27.6607    3.9613 N.am      6 UNK        -0.4450 
     40 CA         29.7177   28.8919    4.5638 C.3       6 UNK         0.0367 
     41 CB         29.1736   29.0882    5.9957 C.3       6 UNK        -0.1929 
     42 C          29.5347   30.1454    3.6831 C.2       6 UNK         0.5070 
     43 O          29.4181   31.2544    4.2061 O.2       6 UNK        -0.5237 
     44 N          29.5313   29.9544    2.3577 N.am      7 UNK        -0.4739 
     45 CA         29.3754   31.0052    1.3486 C.3       7 UNK         0.0276 
     46 CB         28.3449   30.5348    0.3076 C.3       7 UNK        -0.1927 
     47 C          30.7329   31.3590    0.7147 C.2       7 UNK         0.5013 
     48 O          30.8151   31.5685   -0.4971 O.2       7 UNK        -0.5193 
     49 N          31.7797   31.4012    1.5435 N.am      8 UNK        -0.4253 
     50 CA         33.1666   31.6513    1.1712 C.3       8 UNK         0.0242 
     51 CB         33.8037   30.3372    0.6745 C.3       8 UNK        -0.2000 
     52 C          33.9081   32.1993    2.3966 C.2       8 UNK         0.4948 
     53 O          33.3306   32.2715    3.4853 O.2       8 UNK        -0.5275 
     54 N          35.1910   32.5402    2.2084 N.am      9 UNK        -0.4246 
     55 CA         36.1122   32.9264    3.2847 C.3       9 UNK         0.0261 
     56 CB         37.4240   33.4470    2.6751 C.3       9 UNK        -0.1959 
     57 C          36.3926   31.7819    4.2785 C.2       9 UNK         0.5033 
     58 O          36.6620   32.0502    5.4502 O.2       9 UNK        -0.5390 
     59 N          36.3003   30.5322    3.8021 N.am      10 UNK        -0.4215 
     60 CA         36.2806   29.3276    4.6265 C.3       10 UNK         0.0240 
     61 CB         36.5605   28.0990    3.7442 C.3       10 UNK        -0.1982 
     62 C          34.9143   29.2042    5.3176 C.2       10 UNK         0.4970 
     63 O          33.8973   29.1700    4.6243 O.2       10 UNK        -0.4916 
     64 N          34.9357   29.1531    6.6538 N.am      11 UNK        -0.4279 
     65 CA         33.8119   29.0133    7.5998 C.3       11 UNK         0.1003 
     66 C          32.6600   30.0665    7.5406 C.2       11 UNK         0.5709 
     67 N          32.5965   30.9538    6.5572 N.am      11 UNK        -0.7358 
     68 O          31.8299   30.1087    8.4456 O.2       11 UNK        -0.4999 
     69 C69        33.3184   27.5427    7.7500 C.3       12 UNK        -0.0954 
     70 S70        32.1438   26.9661    6.4787 S.3       12 UNK        -0.2268 
     71 C71        33.1998   25.9053    5.4539 C.3       12 UNK         0.0203 
     72 H72        25.6350   29.0279   -0.5375 H         1 UNK         0.0888 
     73 H73        26.6605   29.2024   -1.9646 H         1 UNK         0.0888 
     74 H74        25.1432   28.3073   -2.0710 H         1 UNK         0.0888 
     75 H75        28.4613   27.8474   -1.8551 H         1 UNK         0.3017 
     76 H76        28.7398   25.7416    0.0032 H         1 UNK         0.0873 
     77 H77        30.9285   25.3194   -1.2827 H         1 UNK         0.0745 
     78 H78        30.4566   26.5887   -2.3718 H         1 UNK         0.0745 
     79 H79        32.8578   25.9176   -0.2262 H         1 UNK         0.0705 
     80 H80        33.2102   27.3480    0.6905 H         1 UNK         0.0705 
     81 H81        33.4001   27.0792    3.0045 H         1 UNK         0.1334 
     82 H82        31.4223   23.8922    5.0653 H         1 UNK         0.1417 
     83 H83        30.7574   24.4478    0.8684 H         1 UNK         0.1562 
     84 H84        30.0422   22.3569    3.9292 H         1 UNK         0.0748 
     85 H85        30.2978   22.1651    2.2148 H         1 UNK         0.0748 
     86 H86        28.9179   24.9842    4.3696 H         1 UNK         0.0940 
     87 H87        27.2471   24.5736    4.5000 H         1 UNK         0.0940 
     88 H88        28.3255   26.1004    2.0800 H         1 UNK         0.0703 
     89 H89        26.2566   26.0314    1.3254 H         1 UNK         0.3081 
     90 H90        23.0863   25.2872    2.7139 H         1 UNK         0.0719 
     91 H91        24.1336   27.6319    1.0394 H         1 UNK         0.0809 
     92 H92        22.4640   27.0685    1.1065 H         1 UNK         0.0809 
     93 H93        23.2161   27.7684    2.5310 H         1 UNK         0.0809 
     94 H94        24.2078   25.3713    0.0493 H         1 UNK         0.2990 
     95 H95        24.6600   21.8099   -0.1306 H         1 UNK         0.0690 
     96 H96        22.9609   22.0182   -1.9123 H         1 UNK         0.0788 
     97 H97        22.5546   23.6521   -1.3926 H         1 UNK         0.0788 
     98 H98        22.1883   22.2759   -0.3608 H         1 UNK         0.0788 
     99 H99        25.5626   24.3807   -1.1067 H         1 UNK         0.2993 
    100 H100       27.5568   22.8109   -3.5799 H         1 UNK         0.0949 
    101 H101       26.6991   24.4451   -5.2482 H         1 UNK         0.0767 
    102 H102       25.5507   23.1351   -5.0331 H         1 UNK         0.0767 
    103 H103       25.2403   24.6967   -4.2873 H         1 UNK         0.0767 
    104 H104       27.0719   25.5795   -2.9033 H         1 UNK         0.3013 
    105 H105       29.8771   26.9594    3.7417 H         1 UNK         0.3121 
    106 H106       30.7967   28.7501    4.6365 H         1 UNK         0.0774 
    107 H107       29.6862   29.9086    6.4985 H         1 UNK         0.0815 
    108 H108       28.1091   29.3233    5.9977 H         1 UNK         0.0815 
    109 H109       29.3223   28.1966    6.6041 H         1 UNK         0.0815 
    110 H110       29.6908   29.0209    2.0059 H         1 UNK         0.2987 
    111 H111       28.9919   31.9188    1.8080 H         1 UNK         0.0949 
    112 H112       28.7034   29.6640   -0.2406 H         1 UNK         0.0806 
    113 H113       27.3989   30.2719    0.7810 H         1 UNK         0.0806 
    114 H114       28.1358   31.3185   -0.4216 H         1 UNK         0.0806 
    115 H115       31.6306   31.3003    2.5409 H         1 UNK         0.3010 
    116 H116       33.2014   32.4064    0.3830 H         1 UNK         0.0829 
    117 H117       33.2430   29.9139   -0.1594 H         1 UNK         0.0813 
    118 H118       34.8242   30.4920    0.3238 H         1 UNK         0.0813 
    119 H119       33.8361   29.5880    1.4671 H         1 UNK         0.0813 
    120 H120       35.5813   32.4784    1.2785 H         1 UNK         0.3038 
    121 H121       35.6482   33.7401    3.8465 H         1 UNK         0.0769 
    122 H122       37.2487   34.3091    2.0312 H         1 UNK         0.0811 
    123 H123       37.9287   32.6816    2.0842 H         1 UNK         0.0811 
    124 H124       38.1168   33.7645    3.4560 H         1 UNK         0.0811 
    125 H125       36.0460   30.4157    2.8332 H         1 UNK         0.3204 
    126 H126       37.0705   29.3999    5.3774 H         1 UNK         0.0748 
    127 H127       37.5374   28.1693    3.2653 H         1 UNK         0.0771 
    128 H128       36.5564   27.1841    4.3382 H         1 UNK         0.0771 
    129 H129       35.8109   27.9813    2.9604 H         1 UNK         0.0771 
    130 H130       35.8365   29.2427    7.1009 H         1 UNK         0.2980 
    131 H131       34.2920   29.2467    8.5510 H         1 UNK         0.0545 
    132 H132       33.2087   30.8642    5.7574 H         1 UNK         0.3459 
    133 H133       31.8557   31.6354    6.5497 H         1 UNK         0.3459 
    134 H134       32.8165   27.4313    8.7125 H         1 UNK         0.0616 
    135 H135       34.1703   26.8624    7.7928 H         1 UNK         0.0616 
    136 H136       33.4672   25.0107    6.0182 H         1 UNK         0.0634 
    137 H137       34.1350   26.4174    5.2286 H         1 UNK         0.0634 
@<TRIPOS>BOND
     1    1    2 1    
     2    1   72 1    
     3    1   73 1    
     4    1   74 1    
     5    2    3 2    
     6    2    4 am   BACKBONE|DICT|INTERRES
     7    4    5 1    
     8    4   75 1    
     9    5    6 1    
    10    5   35 1    
    11    5   76 1    
    12    6    7 1    
    13    6   77 1    
    14    6   78 1    
    15    7    8 1    
    16    8    9 1    
    17    8   79 1    
    18    8   80 1    
    19    9   10 ar   
    20    9   14 ar   
    21   10   11 ar   
    22   10   81 1    
    23   11   12 ar   
    24   11   71 1    
    25   12   13 ar   
    26   12   82 1    
    27   13   14 ar   
    28   13   15 1    
    29   14   83 1    
    30   15   16 1    
    31   15   84 1    
    32   15   85 1    
    33   16   17 1    
    34   17   18 1    
    35   17   86 1    
    36   17   87 1    
    37   18   19 1    
    38   18   37 1    
    39   18   88 1    
    40   19   20 am   BACKBONE|DICT|INTERRES
    41   19   89 1    
    42   20   21 2    
    43   20   22 1    
    44   22   23 1    
    45   22   24 1    
    46   22   90 1    
    47   23   91 1    
    48   23   92 1    
    49   23   93 1    
    50   24   25 am   BACKBONE|DICT|INTERRES
    51   24   94 1    
    52   25   26 2    
    53   25   27 1    
    54   27   28 1    
    55   27   29 1    
    56   27   95 1    
    57   28   96 1    
    58   28   97 1    
    59   28   98 1    
    60   29   30 am   BACKBONE|DICT|INTERRES
    61   29   99 1    
    62   30   31 2    
    63   30   32 1    
    64   32   33 1    
    65   32   34 1    
    66   32  100 1    
    67   33  101 1    
    68   33  102 1    
    69   33  103 1    
    70   34   35 am   BACKBONE|DICT|INTERRES
    71   34  104 1    
    72   35   36 2    
    73   37   38 2    
    74   37   39 am   BACKBONE|DICT|INTERRES
    75   39   40 1    
    76   39  105 1    
    77   40   41 1    
    78   40   42 1    
    79   40  106 1    
    80   41  107 1    
    81   41  108 1    
    82   41  109 1    
    83   42   43 2    
    84   42   44 am   BACKBONE|DICT|INTERRES
    85   44   45 1    
    86   44  110 1    
    87   45   46 1    
    88   45   47 1    
    89   45  111 1    
    90   46  112 1    
    91   46  113 1    
    92   46  114 1    
    93   47   48 2    
    94   47   49 am   BACKBONE|DICT|INTERRES
    95   49   50 1    
    96   49  115 1    
    97   50   51 1    
    98   50   52 1    
    99   50  116 1    
   100   51  117 1    
   101   51  118 1    
   102   51  119 1    
   103   52   53 2    
   104   52   54 am   BACKBONE|DICT|INTERRES
   105   54   55 1    
   106   54  120 1    
   107   55   56 1    
   108   55   57 1    
   109   55  121 1    
   110   56  122 1    
   111   56  123 1    
   112   56  124 1    
   113   57   58 2    
   114   57   59 am   BACKBONE|DICT|INTERRES
   115   59   60 1    
   116   59  125 1    
   117   60   61 1    
   118   60   62 1    
   119   60  126 1    
   120   61  127 1    
   121   61  128 1    
   122   61  129 1    
   123   62   63 2    
   124   62   64 am   BACKBONE|DICT|INTERRES
   125   64   65 1    
   126   64  130 1    
   127   65   66 1    
   128   65   69 1    
   129   65  131 1    
   130   66   67 am   BACKBONE|DICT|INTERRES
   131   66   68 2    
   132   67  132 1    
   133   67  133 1    
   134   69   70 1    
   135   69  134 1    
   136   69  135 1    
   137   70   71 1    
   138   71  136 1    
   139   71  137 1    
@<TRIPOS>SUBSTRUCTURE
     1 UNK         1 GROUP             0       ****    0 ROOT    
