@<TRIPOS>MOLECULE
3R136
137   139    1
SMALL
USER_CHARGES


@<TRIPOS>ATOM
      1 CA         31.6254   26.9216   -4.3780 C.3       0 UNK        -0.1979 
      2 C          30.4267   26.8076   -3.4491 C.2       0 UNK         0.4864 
      3 O          29.4088   27.4636   -3.6780 O.2       0 UNK        -0.5359 
      4 N          30.5324   25.9774   -2.4031 N.am      1 UNK        -0.4318 
      5 CA         29.5067   25.7543   -1.3769 C.3       1 UNK         0.0824 
      6 C6         30.1062   25.1652   -0.0752 C.3       12 UNK        -0.0944 
      7 S7         31.4561   26.1595    0.6486 S.3       12 UNK        -0.2672 
      8 C8         32.5127   24.8539    1.3616 C.3       12 UNK         0.0333 
      9 C9         31.9624   24.3419    2.6873 C.ar      12 UNK        -0.0807 
     10 C10        32.5733   24.7044    3.8915 C.ar      12 UNK        -0.0894 
     11 C11        32.0638   24.2588    5.1209 C.ar      12 UNK        -0.0804 
     12 C12        30.9115   23.4651    5.1232 C.ar      12 UNK        -0.0824 
     13 C13        30.2936   23.0908    3.9262 C.ar      12 UNK        -0.0762 
     14 C14        30.8439   23.5056    2.7132 C.ar      12 UNK        -0.0782 
     15 C15        29.0197   22.2550    3.9361 C.3       12 UNK         0.0230 
     16 S16        27.5940   23.1651    3.2463 S.3       12 UNK        -0.2608 
     17 C17        27.5464   24.6368    4.3227 C.3       12 UNK        -0.0989 
     18 CA         28.0534   25.9015    3.5857 C.3       5 UNK         0.0716 
     19 N          27.1039   26.3522    2.5667 N.am      5 UNK        -0.4135 
     20 C          27.2602   27.3812    1.7245 C.2       4 UNK         0.5031 
     21 O          28.2877   28.0645    1.6636 O.2       4 UNK        -0.5229 
     22 CA         26.0597   27.7078    0.8069 C.3       4 UNK         0.0329 
     23 CB         26.4045   28.7486   -0.2747 C.3       4 UNK        -0.2001 
     24 N          25.4950   26.5365    0.1320 N.am      4 UNK        -0.4303 
     25 C          24.7670   25.5476    0.6661 C.2       3 UNK         0.5044 
     26 O          24.4662   25.5029    1.8594 O.2       3 UNK        -0.5152 
     27 CA         24.3432   24.3879   -0.2600 C.3       3 UNK         0.0319 
     28 CB         22.8407   24.4560   -0.5978 C.3       3 UNK        -0.2001 
     29 N          25.1763   24.2459   -1.4665 N.am      3 UNK        -0.4354 
     30 C          25.2483   25.0443   -2.5418 C.2       2 UNK         0.4964 
     31 O          24.5271   26.0254   -2.7230 O.2       2 UNK        -0.5047 
     32 CA         26.4240   24.7762   -3.4968 C.3       2 UNK         0.0288 
     33 CB         26.1837   25.3539   -4.9035 C.3       2 UNK        -0.2113 
     34 N          27.6449   25.3670   -2.9432 N.am      2 UNK        -0.4145 
     35 C          28.3416   24.8848   -1.9059 C.2       1 UNK         0.5006 
     36 O          28.0824   23.8029   -1.3733 O.2       1 UNK        -0.5103 
     37 C          28.3404   27.0347    4.5847 C.2       5 UNK         0.5055 
     38 O          27.4153   27.4984    5.2550 O.2       5 UNK        -0.5220 
     39 N          29.6081   27.4674    4.6317 N.am      6 UNK        -0.4450 
     40 CA         30.1275   28.5922    5.4199 C.3       6 UNK         0.0367 
     41 CB         30.0022   28.3143    6.9336 C.3       6 UNK        -0.1929 
     42 C          29.5487   29.9674    5.0201 C.2       6 UNK         0.5070 
     43 O          29.6285   30.9075    5.8127 O.2       6 UNK        -0.5237 
     44 N          28.9947   30.0718    3.8040 N.am      7 UNK        -0.4739 
     45 CA         28.4898   31.3145    3.2181 C.3       7 UNK         0.0276 
     46 CB         26.9742   31.2036    2.9872 C.3       7 UNK        -0.1927 
     47 C          29.2336   31.6492    1.9182 C.2       7 UNK         0.5013 
     48 O          29.5543   32.8179    1.6998 O.2       7 UNK        -0.5193 
     49 N          29.5288   30.6329    1.0923 N.am      8 UNK        -0.4253 
     50 CA         30.3284   30.7793   -0.1305 C.3       8 UNK         0.0242 
     51 CB         30.0714   29.5806   -1.0529 C.3       8 UNK        -0.2000 
     52 C          31.8382   30.9240    0.1355 C.2       8 UNK         0.4948 
     53 O          32.5578   31.4066   -0.7403 O.2       8 UNK        -0.5275 
     54 N          32.2921   30.5051    1.3207 N.am      9 UNK        -0.4246 
     55 CA         33.6676   30.5959    1.7940 C.3       9 UNK         0.0261 
     56 CB         34.4001   29.2768    1.4913 C.3       9 UNK        -0.1959 
     57 C          33.6250   30.8620    3.3000 C.2       9 UNK         0.5033 
     58 O          32.6638   30.4541    3.9581 O.2       9 UNK        -0.5390 
     59 N          34.6760   31.4963    3.8345 N.am      10 UNK        -0.4215 
     60 CA         34.8356   31.8335    5.2556 C.3       10 UNK         0.0240 
     61 CB         35.8450   32.9905    5.3834 C.3       10 UNK        -0.1982 
     62 C          35.2185   30.6115    6.1189 C.2       10 UNK         0.4970 
     63 O          36.2198   30.6449    6.8368 O.2       10 UNK        -0.4916 
     64 N          34.4227   29.5452    6.0072 N.am      11 UNK        -0.4279 
     65 CA         34.5541   28.2865    6.7454 C.3       11 UNK         0.1003 
     66 C          34.2048   28.4486    8.2510 C.2       11 UNK         0.5709 
     67 N          34.8929   27.7345    9.1311 N.am      11 UNK        -0.7358 
     68 O          33.2980   29.1913    8.6233 O.2       11 UNK        -0.4999 
     69 C69        33.7041   27.1885    6.0584 C.3       12 UNK        -0.0954 
     70 S70        34.2909   25.5017    6.4164 S.3       12 UNK        -0.2268 
     71 C71        32.7098   24.5864    6.4722 C.3       12 UNK         0.0203 
     72 H72        31.9787   27.9520   -4.4067 H         1 UNK         0.0888 
     73 H73        32.4521   26.2883   -4.0567 H         1 UNK         0.0888 
     74 H74        31.3452   26.6283   -5.3894 H         1 UNK         0.0888 
     75 H75        31.3898   25.4606   -2.2699 H         1 UNK         0.3017 
     76 H76        29.0702   26.7207   -1.1187 H         1 UNK         0.0873 
     77 H77        29.3277   25.0668    0.6837 H         1 UNK         0.0745 
     78 H78        30.4779   24.1586   -0.2734 H         1 UNK         0.0745 
     79 H79        33.5137   25.2645    1.5023 H         1 UNK         0.0705 
     80 H80        32.6241   24.0287    0.6569 H         1 UNK         0.0705 
     81 H81        33.4542   25.3267    3.8528 H         1 UNK         0.1334 
     82 H82        30.4967   23.1319    6.0652 H         1 UNK         0.1417 
     83 H83        30.3699   23.1995    1.7925 H         1 UNK         0.1562 
     84 H84        28.7760   21.9267    4.9478 H         1 UNK         0.0748 
     85 H85        29.1797   21.3491    3.3498 H         1 UNK         0.0748 
     86 H86        28.1376   24.4394    5.2191 H         1 UNK         0.0940 
     87 H87        26.5225   24.7808    4.6736 H         1 UNK         0.0940 
     88 H88        28.9851   25.6573    3.0722 H         1 UNK         0.0703 
     89 H89        26.2071   25.8756    2.5496 H         1 UNK         0.3081 
     90 H90        25.2868   28.1353    1.4488 H         1 UNK         0.0719 
     91 H91        27.1142   28.3478   -0.9979 H         1 UNK         0.0809 
     92 H92        25.5135   29.0560   -0.8225 H         1 UNK         0.0809 
     93 H93        26.8424   29.6515    0.1502 H         1 UNK         0.0809 
     94 H94        25.6318   26.4957   -0.8686 H         1 UNK         0.2990 
     95 H95        24.5068   23.4730    0.3119 H         1 UNK         0.0690 
     96 H96        22.5369   23.6207   -1.2287 H         1 UNK         0.0788 
     97 H97        22.5759   25.3804   -1.1115 H         1 UNK         0.0788 
     98 H98        22.2386   24.4116    0.3108 H         1 UNK         0.0788 
     99 H99        25.9055   23.5450   -1.3873 H         1 UNK         0.2993 
    100 H100       26.5548   23.6957   -3.5907 H         1 UNK         0.0949 
    101 H101       26.0893   26.4407   -4.8867 H         1 UNK         0.0767 
    102 H102       27.0016   25.1014   -5.5787 H         1 UNK         0.0767 
    103 H103       25.2676   24.9522   -5.3387 H         1 UNK         0.0767 
    104 H104       27.9608   26.2469   -3.3448 H         1 UNK         0.3013 
    105 H105       30.2797   27.0246    4.0186 H         1 UNK         0.3121 
    106 H106       31.1892   28.6487    5.1836 H         1 UNK         0.0774 
    107 H107       30.5722   29.0433    7.5111 H         1 UNK         0.0815 
    108 H108       28.9670   28.3722    7.2709 H         1 UNK         0.0815 
    109 H109       30.3839   27.3274    7.1939 H         1 UNK         0.0815 
    110 H110       28.9391   29.2418    3.2242 H         1 UNK         0.2987 
    111 H111       28.6607   32.1522    3.8979 H         1 UNK         0.0949 
    112 H112       26.5847   32.0981    2.4992 H         1 UNK         0.0806 
    113 H113       26.7173   30.3498    2.3631 H         1 UNK         0.0806 
    114 H114       26.4427   31.0924    3.9324 H         1 UNK         0.0806 
    115 H115       29.1887   29.6984    1.3060 H         1 UNK         0.3010 
    116 H116       30.0047   31.6822   -0.6527 H         1 UNK         0.0829 
    117 H117       29.0357   29.5508   -1.3856 H         1 UNK         0.0813 
    118 H118       30.6902   29.6326   -1.9498 H         1 UNK         0.0813 
    119 H119       30.2995   28.6396   -0.5538 H         1 UNK         0.0813 
    120 H120       31.6332   30.1834    2.0182 H         1 UNK         0.3038 
    121 H121       34.1783   31.4279    1.3041 H         1 UNK         0.0769 
    122 H122       35.4321   29.3087    1.8425 H         1 UNK         0.0811 
    123 H123       34.4279   29.0776    0.4198 H         1 UNK         0.0811 
    124 H124       33.9149   28.4270    1.9742 H         1 UNK         0.0811 
    125 H125       35.4425   31.7529    3.2285 H         1 UNK         0.3204 
    126 H126       33.8753   32.1933    5.6319 H         1 UNK         0.0748 
    127 H127       35.9489   33.3069    6.4224 H         1 UNK         0.0771 
    128 H128       36.8358   32.7041    5.0284 H         1 UNK         0.0771 
    129 H129       35.5231   33.8629    4.8143 H         1 UNK         0.0771 
    130 H130       33.6153   29.6368    5.3982 H         1 UNK         0.2980 
    131 H131       35.6052   27.9993    6.6726 H         1 UNK         0.0545 
    132 H132       34.6726   27.8182   10.1109 H         1 UNK         0.3459 
    133 H133       35.6180   27.1016    8.8311 H         1 UNK         0.3459 
    134 H134       33.7386   27.3128    4.9751 H         1 UNK         0.0616 
    135 H135       32.6555   27.2812    6.3376 H         1 UNK         0.0616 
    136 H136       31.9981   25.1369    7.0890 H         1 UNK         0.0634 
    137 H137       32.8995   23.6472    6.9937 H         1 UNK         0.0634 
@<TRIPOS>BOND
     1    1    2 1    
     2    1   72 1    
     3    1   73 1    
     4    1   74 1    
     5    2    3 2    
     6    2    4 am   BACKBONE|DICT|INTERRES
     7    4    5 1    
     8    4   75 1    
     9    5    6 1    
    10    5   35 1    
    11    5   76 1    
    12    6    7 1    
    13    6   77 1    
    14    6   78 1    
    15    7    8 1    
    16    8    9 1    
    17    8   79 1    
    18    8   80 1    
    19    9   10 ar   
    20    9   14 ar   
    21   10   11 ar   
    22   10   81 1    
    23   11   12 ar   
    24   11   71 1    
    25   12   13 ar   
    26   12   82 1    
    27   13   14 ar   
    28   13   15 1    
    29   14   83 1    
    30   15   16 1    
    31   15   84 1    
    32   15   85 1    
    33   16   17 1    
    34   17   18 1    
    35   17   86 1    
    36   17   87 1    
    37   18   19 1    
    38   18   37 1    
    39   18   88 1    
    40   19   20 am   BACKBONE|DICT|INTERRES
    41   19   89 1    
    42   20   21 2    
    43   20   22 1    
    44   22   23 1    
    45   22   24 1    
    46   22   90 1    
    47   23   91 1    
    48   23   92 1    
    49   23   93 1    
    50   24   25 am   BACKBONE|DICT|INTERRES
    51   24   94 1    
    52   25   26 2    
    53   25   27 1    
    54   27   28 1    
    55   27   29 1    
    56   27   95 1    
    57   28   96 1    
    58   28   97 1    
    59   28   98 1    
    60   29   30 am   BACKBONE|DICT|INTERRES
    61   29   99 1    
    62   30   31 2    
    63   30   32 1    
    64   32   33 1    
    65   32   34 1    
    66   32  100 1    
    67   33  101 1    
    68   33  102 1    
    69   33  103 1    
    70   34   35 am   BACKBONE|DICT|INTERRES
    71   34  104 1    
    72   35   36 2    
    73   37   38 2    
    74   37   39 am   BACKBONE|DICT|INTERRES
    75   39   40 1    
    76   39  105 1    
    77   40   41 1    
    78   40   42 1    
    79   40  106 1    
    80   41  107 1    
    81   41  108 1    
    82   41  109 1    
    83   42   43 2    
    84   42   44 am   BACKBONE|DICT|INTERRES
    85   44   45 1    
    86   44  110 1    
    87   45   46 1    
    88   45   47 1    
    89   45  111 1    
    90   46  112 1    
    91   46  113 1    
    92   46  114 1    
    93   47   48 2    
    94   47   49 am   BACKBONE|DICT|INTERRES
    95   49   50 1    
    96   49  115 1    
    97   50   51 1    
    98   50   52 1    
    99   50  116 1    
   100   51  117 1    
   101   51  118 1    
   102   51  119 1    
   103   52   53 2    
   104   52   54 am   BACKBONE|DICT|INTERRES
   105   54   55 1    
   106   54  120 1    
   107   55   56 1    
   108   55   57 1    
   109   55  121 1    
   110   56  122 1    
   111   56  123 1    
   112   56  124 1    
   113   57   58 2    
   114   57   59 am   BACKBONE|DICT|INTERRES
   115   59   60 1    
   116   59  125 1    
   117   60   61 1    
   118   60   62 1    
   119   60  126 1    
   120   61  127 1    
   121   61  128 1    
   122   61  129 1    
   123   62   63 2    
   124   62   64 am   BACKBONE|DICT|INTERRES
   125   64   65 1    
   126   64  130 1    
   127   65   66 1    
   128   65   69 1    
   129   65  131 1    
   130   66   67 am   BACKBONE|DICT|INTERRES
   131   66   68 2    
   132   67  132 1    
   133   67  133 1    
   134   69   70 1    
   135   69  134 1    
   136   69  135 1    
   137   70   71 1    
   138   71  136 1    
   139   71  137 1    
@<TRIPOS>SUBSTRUCTURE
     1 UNK         1 GROUP             0       ****    0 ROOT    
