@<TRIPOS>MOLECULE
3R136
137   139    1
SMALL
USER_CHARGES


@<TRIPOS>ATOM
      1 CA         28.5872   22.3271   -2.1325 C.3       0 UNK        -0.1979 
      2 C          28.3491   22.8328   -0.7181 C.2       0 UNK         0.4864 
      3 O          27.8389   23.9404   -0.5332 O.2       0 UNK        -0.5359 
      4 N          28.7148   22.0167    0.2787 N.am      1 UNK        -0.4318 
      5 CA         28.6967   22.3370    1.7123 C.3       1 UNK         0.0824 
      6 C6         29.3050   21.1997    2.5748 C.3       12 UNK        -0.0944 
      7 S7         30.8624   20.5175    1.9070 S.3       12 UNK        -0.2672 
      8 C8         32.1218   21.4818    2.8015 C.3       12 UNK         0.0333 
      9 C9         32.1592   22.9479    2.3856 C.ar      12 UNK        -0.0807 
     10 C10        32.0828   23.9505    3.3573 C.ar      12 UNK        -0.0894 
     11 C11        32.1801   25.2979    2.9978 C.ar      12 UNK        -0.0804 
     12 C12        32.3334   25.6413    1.6517 C.ar      12 UNK        -0.0824 
     13 C13        32.3886   24.6512    0.6664 C.ar      12 UNK        -0.0762 
     14 C14        32.3114   23.3061    1.0406 C.ar      12 UNK        -0.0782 
     15 C15        32.5538   25.0351   -0.7986 C.3       12 UNK         0.0230 
     16 S16        30.9506   25.2246   -1.6447 S.3       12 UNK        -0.2608 
     17 C17        30.2703   26.6883   -0.7971 C.3       12 UNK        -0.0989 
     18 CA         29.1686   27.4145   -1.6122 C.3       5 UNK         0.0716 
     19 N          27.9831   26.5655   -1.7873 N.am      5 UNK        -0.4135 
     20 C          27.0234   26.7364   -2.7073 C.2       4 UNK         0.5031 
     21 O          27.0945   27.5486   -3.6296 O.2       4 UNK        -0.5229 
     22 CA         25.7255   25.9323   -2.5070 C.3       4 UNK         0.0329 
     23 CB         25.7486   24.6124   -3.2896 C.3       4 UNK        -0.2001 
     24 N          25.4538   25.6784   -1.0857 N.am      4 UNK        -0.4303 
     25 C          25.0179   26.6191   -0.2347 C.2       3 UNK         0.5044 
     26 O          24.7535   27.7659   -0.5976 O.2       3 UNK        -0.5152 
     27 CA         24.9106   26.2804    1.2669 C.3       3 UNK         0.0319 
     28 CB         23.5967   26.8084    1.8801 C.3       3 UNK        -0.2001 
     29 N          25.1229   24.8727    1.6261 N.am      3 UNK        -0.4354 
     30 C          24.3803   23.8055    1.3017 C.2       2 UNK         0.4964 
     31 O          23.3968   23.8549    0.5617 O.2       2 UNK        -0.5047 
     32 CA         24.8310   22.4556    1.9017 C.3       2 UNK         0.0288 
     33 CB         23.9778   21.2716    1.4077 C.3       2 UNK        -0.2113 
     34 N          26.2406   22.1665    1.6236 N.am      2 UNK        -0.4145 
     35 C          27.2973   22.7130    2.2442 C.2       1 UNK         0.5006 
     36 O          27.1955   23.5100    3.1785 O.2       1 UNK        -0.5103 
     37 C          28.8427   28.7868   -0.9635 C.2       5 UNK         0.5055 
     38 O          29.7744   29.5552   -0.7178 O.2       5 UNK        -0.5220 
     39 N          27.5616   29.0744   -0.6768 N.am      6 UNK        -0.4450 
     40 CA         27.0504   30.2171    0.0879 C.3       6 UNK         0.0367 
     41 CB         27.3876   31.5637   -0.5949 C.3       6 UNK        -0.1929 
     42 C          27.4697   30.1192    1.5679 C.2       6 UNK         0.5070 
     43 O          27.4879   29.0140    2.1146 O.2       6 UNK        -0.5237 
     44 N          27.7728   31.2564    2.2000 N.am      7 UNK        -0.4739 
     45 CA         28.2377   31.3548    3.5802 C.3       7 UNK         0.0276 
     46 CB         27.0396   31.5956    4.5153 C.3       7 UNK        -0.1927 
     47 C          29.2545   32.4970    3.6745 C.2       7 UNK         0.5013 
     48 O          29.1826   33.4461    2.8884 O.2       7 UNK        -0.5193 
     49 N          30.1691   32.3868    4.6404 N.am      8 UNK        -0.4253 
     50 CA         31.2497   33.3244    4.9313 C.3       8 UNK         0.0242 
     51 CB         32.3328   33.2463    3.8350 C.3       8 UNK        -0.2000 
     52 C          31.8213   32.9735    6.3124 C.2       8 UNK         0.4948 
     53 O          31.4377   31.9513    6.8896 O.2       8 UNK        -0.5275 
     54 N          32.7374   33.8136    6.8140 N.am      9 UNK        -0.4246 
     55 CA         33.4234   33.6342    8.1014 C.3       9 UNK         0.0261 
     56 CB         34.2157   34.9092    8.4348 C.3       9 UNK        -0.1959 
     57 C          34.3448   32.3990    8.1594 C.2       9 UNK         0.5033 
     58 O          34.5838   31.8766    9.2494 O.2       9 UNK        -0.5390 
     59 N          34.8321   31.9516    6.9979 N.am      10 UNK        -0.4215 
     60 CA         35.5954   30.7263    6.7956 C.3       10 UNK         0.0240 
     61 CB         37.0960   30.9981    7.0038 C.3       10 UNK        -0.1982 
     62 C          35.3092   30.2358    5.3727 C.2       10 UNK         0.4970 
     63 O          34.9775   31.0512    4.5081 O.2       10 UNK        -0.4916 
     64 N          35.4486   28.9247    5.1524 N.am      11 UNK        -0.4279 
     65 CA         35.1959   28.2702    3.8566 C.3       11 UNK         0.1003 
     66 C          36.2743   28.5382    2.7652 C.2       11 UNK         0.5709 
     67 N          37.4307   29.1030    3.0927 N.am      11 UNK        -0.7358 
     68 O          36.0520   28.2334    1.5960 O.2       11 UNK        -0.4999 
     69 C69        34.9431   26.7485    4.0191 C.3       12 UNK        -0.0954 
     70 S70        33.5754   26.3613    5.1655 S.3       12 UNK        -0.2268 
     71 C71        32.1235   26.3842    4.0634 C.3       12 UNK         0.0203 
     72 H72        29.3753   21.5749   -2.1603 H         1 UNK         0.0888 
     73 H73        27.6769   21.8845   -2.5352 H         1 UNK         0.0888 
     74 H74        28.8897   23.1487   -2.7812 H         1 UNK         0.0888 
     75 H75        29.1373   21.1263    0.0552 H         1 UNK         0.3017 
     76 H76        29.3219   23.2242    1.8340 H         1 UNK         0.0873 
     77 H77        29.4733   21.5464    3.5964 H         1 UNK         0.0745 
     78 H78        28.6043   20.3658    2.6528 H         1 UNK         0.0745 
     79 H79        31.9512   21.3802    3.8744 H         1 UNK         0.0705 
     80 H80        33.1003   21.0419    2.6050 H         1 UNK         0.0705 
     81 H81        31.9723   23.6863    4.4003 H         1 UNK         0.1334 
     82 H82        32.4123   26.6823    1.3701 H         1 UNK         0.1417 
     83 H83        32.3690   22.5352    0.2841 H         1 UNK         0.1562 
     84 H84        33.1339   24.2701   -1.3168 H         1 UNK         0.0748 
     85 H85        33.1272   25.9591   -0.8886 H         1 UNK         0.0748 
     86 H86        31.1052   27.3630   -0.5991 H         1 UNK         0.0940 
     87 H87        29.8854   26.3808    0.1775 H         1 UNK         0.0940 
     88 H88        29.5725   27.6353   -2.6025 H         1 UNK         0.0703 
     89 H89        27.8817   25.7956   -1.1302 H         1 UNK         0.3081 
     90 H90        24.9060   26.5336   -2.9072 H         1 UNK         0.0719 
     91 H91        26.5486   23.9590   -2.9528 H         1 UNK         0.0809 
     92 H92        24.8072   24.0728   -3.1850 H         1 UNK         0.0809 
     93 H93        25.9032   24.7941   -4.3540 H         1 UNK         0.0809 
     94 H94        25.7311   24.7778   -0.7164 H         1 UNK         0.2990 
     95 H95        25.7290   26.8236    1.7419 H         1 UNK         0.0690 
     96 H96        23.5510   26.6110    2.9510 H         1 UNK         0.0788 
     97 H97        22.7214   26.3527    1.4161 H         1 UNK         0.0788 
     98 H98        23.5075   27.8876    1.7493 H         1 UNK         0.0788 
     99 H99        25.9269   24.6934    2.2213 H         1 UNK         0.2993 
    100 H100       24.6988   22.5311    2.9834 H         1 UNK         0.0949 
    101 H101       24.0549   21.1410    0.3275 H         1 UNK         0.0767 
    102 H102       24.2822   20.3381    1.8817 H         1 UNK         0.0767 
    103 H103       22.9237   21.4226    1.6446 H         1 UNK         0.0767 
    104 H104       26.4262   21.5525    0.8440 H         1 UNK         0.3013 
    105 H105       26.8588   28.3819   -0.9002 H         1 UNK         0.3121 
    106 H106       25.9642   30.1167    0.0820 H         1 UNK         0.0774 
    107 H107       26.8289   32.3849   -0.1448 H         1 UNK         0.0815 
    108 H108       28.4478   31.8092   -0.5247 H         1 UNK         0.0815 
    109 H109       27.1222   31.5440   -1.6520 H         1 UNK         0.0815 
    110 H110       27.8024   32.1271    1.6839 H         1 UNK         0.2987 
    111 H111       28.7405   30.4275    3.8658 H         1 UNK         0.0949 
    112 H112       26.5120   32.5167    4.2643 H         1 UNK         0.0806 
    113 H113       26.3243   30.7746    4.4611 H         1 UNK         0.0806 
    114 H114       27.3621   31.6754    5.5542 H         1 UNK         0.0806 
    115 H115       30.1339   31.6105    5.2921 H         1 UNK         0.3010 
    116 H116       30.8400   34.3356    4.9780 H         1 UNK         0.0829 
    117 H117       31.9428   33.5583    2.8662 H         1 UNK         0.0813 
    118 H118       33.1809   33.8946    4.0566 H         1 UNK         0.0813 
    119 H119       32.7156   32.2315    3.7244 H         1 UNK         0.0813 
    120 H120       32.9887   34.6338    6.2800 H         1 UNK         0.3038 
    121 H121       32.6572   33.4995    8.8680 H         1 UNK         0.0769 
    122 H122       34.9865   35.1127    7.6903 H         1 UNK         0.0811 
    123 H123       34.7135   34.8174    9.4014 H         1 UNK         0.0811 
    124 H124       33.5628   35.7804    8.4916 H         1 UNK         0.0811 
    125 H125       34.5561   32.4073    6.1367 H         1 UNK         0.3204 
    126 H126       35.2547   29.9659    7.5020 H         1 UNK         0.0748 
    127 H127       37.6838   30.0909    6.8590 H         1 UNK         0.0771 
    128 H128       37.4699   31.7476    6.3049 H         1 UNK         0.0771 
    129 H129       37.2970   31.3547    8.0142 H         1 UNK         0.0771 
    130 H130       35.7295   28.3177    5.9083 H         1 UNK         0.2980 
    131 H131       34.2756   28.7020    3.4585 H         1 UNK         0.0545 
    132 H132       37.6227   29.3607    4.0468 H         1 UNK         0.3459 
    133 H133       38.1164   29.2744    2.3743 H         1 UNK         0.3459 
    134 H134       34.7414   26.2823    3.0539 H         1 UNK         0.0616 
    135 H135       35.8416   26.2601    4.4001 H         1 UNK         0.0616 
    136 H136       31.2246   26.2447    4.6654 H         1 UNK         0.0634 
    137 H137       32.0369   27.3729    3.6102 H         1 UNK         0.0634 
@<TRIPOS>BOND
     1    1    2 1    
     2    1   72 1    
     3    1   73 1    
     4    1   74 1    
     5    2    3 2    
     6    2    4 am   BACKBONE|DICT|INTERRES
     7    4    5 1    
     8    4   75 1    
     9    5    6 1    
    10    5   35 1    
    11    5   76 1    
    12    6    7 1    
    13    6   77 1    
    14    6   78 1    
    15    7    8 1    
    16    8    9 1    
    17    8   79 1    
    18    8   80 1    
    19    9   10 ar   
    20    9   14 ar   
    21   10   11 ar   
    22   10   81 1    
    23   11   12 ar   
    24   11   71 1    
    25   12   13 ar   
    26   12   82 1    
    27   13   14 ar   
    28   13   15 1    
    29   14   83 1    
    30   15   16 1    
    31   15   84 1    
    32   15   85 1    
    33   16   17 1    
    34   17   18 1    
    35   17   86 1    
    36   17   87 1    
    37   18   19 1    
    38   18   37 1    
    39   18   88 1    
    40   19   20 am   BACKBONE|DICT|INTERRES
    41   19   89 1    
    42   20   21 2    
    43   20   22 1    
    44   22   23 1    
    45   22   24 1    
    46   22   90 1    
    47   23   91 1    
    48   23   92 1    
    49   23   93 1    
    50   24   25 am   BACKBONE|DICT|INTERRES
    51   24   94 1    
    52   25   26 2    
    53   25   27 1    
    54   27   28 1    
    55   27   29 1    
    56   27   95 1    
    57   28   96 1    
    58   28   97 1    
    59   28   98 1    
    60   29   30 am   BACKBONE|DICT|INTERRES
    61   29   99 1    
    62   30   31 2    
    63   30   32 1    
    64   32   33 1    
    65   32   34 1    
    66   32  100 1    
    67   33  101 1    
    68   33  102 1    
    69   33  103 1    
    70   34   35 am   BACKBONE|DICT|INTERRES
    71   34  104 1    
    72   35   36 2    
    73   37   38 2    
    74   37   39 am   BACKBONE|DICT|INTERRES
    75   39   40 1    
    76   39  105 1    
    77   40   41 1    
    78   40   42 1    
    79   40  106 1    
    80   41  107 1    
    81   41  108 1    
    82   41  109 1    
    83   42   43 2    
    84   42   44 am   BACKBONE|DICT|INTERRES
    85   44   45 1    
    86   44  110 1    
    87   45   46 1    
    88   45   47 1    
    89   45  111 1    
    90   46  112 1    
    91   46  113 1    
    92   46  114 1    
    93   47   48 2    
    94   47   49 am   BACKBONE|DICT|INTERRES
    95   49   50 1    
    96   49  115 1    
    97   50   51 1    
    98   50   52 1    
    99   50  116 1    
   100   51  117 1    
   101   51  118 1    
   102   51  119 1    
   103   52   53 2    
   104   52   54 am   BACKBONE|DICT|INTERRES
   105   54   55 1    
   106   54  120 1    
   107   55   56 1    
   108   55   57 1    
   109   55  121 1    
   110   56  122 1    
   111   56  123 1    
   112   56  124 1    
   113   57   58 2    
   114   57   59 am   BACKBONE|DICT|INTERRES
   115   59   60 1    
   116   59  125 1    
   117   60   61 1    
   118   60   62 1    
   119   60  126 1    
   120   61  127 1    
   121   61  128 1    
   122   61  129 1    
   123   62   63 2    
   124   62   64 am   BACKBONE|DICT|INTERRES
   125   64   65 1    
   126   64  130 1    
   127   65   66 1    
   128   65   69 1    
   129   65  131 1    
   130   66   67 am   BACKBONE|DICT|INTERRES
   131   66   68 2    
   132   67  132 1    
   133   67  133 1    
   134   69   70 1    
   135   69  134 1    
   136   69  135 1    
   137   70   71 1    
   138   71  136 1    
   139   71  137 1    
@<TRIPOS>SUBSTRUCTURE
     1 UNK         1 GROUP             0       ****    0 ROOT    
