@<TRIPOS>MOLECULE
3R136
137   139    1
SMALL
USER_CHARGES


@<TRIPOS>ATOM
      1 CA         26.1873   26.3339    5.3693 C.3       0 UNK        -0.1979 
      2 C          26.3745   24.9237    4.8315 C.2       0 UNK         0.4864 
      3 O          25.3904   24.2219    4.5970 O.2       0 UNK        -0.5359 
      4 N          27.6330   24.5097    4.6323 N.am      1 UNK        -0.4318 
      5 CA         28.0307   23.2160    4.0605 C.3       1 UNK         0.0824 
      6 C6         29.5566   22.9790    4.2037 C.3       12 UNK        -0.0944 
      7 S7         30.5707   24.3460    3.5341 S.3       12 UNK        -0.2672 
      8 C8         31.4084   23.5322    2.1374 C.3       12 UNK         0.0333 
      9 C9         32.1722   24.5115    1.2506 C.ar      12 UNK        -0.0807 
     10 C10        32.9764   25.5155    1.8036 C.ar      12 UNK        -0.0894 
     11 C11        33.6916   26.3925    0.9819 C.ar      12 UNK        -0.0804 
     12 C12        33.6041   26.2559   -0.4067 C.ar      12 UNK        -0.0824 
     13 C13        32.8037   25.2600   -0.9743 C.ar      12 UNK        -0.0762 
     14 C14        32.0954   24.3896   -0.1404 C.ar      12 UNK        -0.0782 
     15 C15        32.7194   25.1096   -2.4880 C.3       12 UNK         0.0230 
     16 S16        31.9798   26.5634   -3.2997 S.3       12 UNK        -0.2608 
     17 C17        30.2639   26.5110   -2.6824 C.3       12 UNK        -0.0989 
     18 CA         29.5648   27.8902   -2.7902 C.3       5 UNK         0.0716 
     19 N          28.1105   27.7654   -2.7174 N.am      5 UNK        -0.4135 
     20 C          27.2336   28.5208   -3.3927 C.2       4 UNK         0.5031 
     21 O          27.5566   29.3673   -4.2272 O.2       4 UNK        -0.5229 
     22 CA         25.7361   28.2965   -3.1018 C.3       4 UNK         0.0329 
     23 CB         25.1269   27.3391   -4.1390 C.3       4 UNK        -0.2001 
     24 N          25.4752   27.7764   -1.7570 N.am      4 UNK        -0.4303 
     25 C          25.6349   28.4772   -0.6255 C.2       3 UNK         0.5044 
     26 O          25.9258   29.6728   -0.5966 O.2       3 UNK        -0.5152 
     27 CA         25.4766   27.7102    0.7018 C.3       3 UNK         0.0319 
     28 CB         24.0585   27.8904    1.2654 C.3       3 UNK        -0.2001 
     29 N          25.8016   26.2770    0.6490 N.am      3 UNK        -0.4354 
     30 C          26.9673   25.7593    0.2360 C.2       2 UNK         0.4964 
     31 O          27.8828   26.4263   -0.2456 O.2       2 UNK        -0.5047 
     32 CA         27.1688   24.2614    0.4586 C.3       2 UNK         0.0288 
     33 CB         28.1915   23.6488   -0.5194 C.3       2 UNK        -0.2113 
     34 N          27.6358   24.1342    1.8296 N.am      2 UNK        -0.4145 
     35 C          27.5612   23.0439    2.5994 C.2       1 UNK         0.5006 
     36 O          27.1293   21.9551    2.2163 O.2       1 UNK        -0.5103 
     37 C          30.0497   28.8782   -1.7125 C.2       5 UNK         0.5055 
     38 O          30.7502   29.8369   -2.0436 O.2       5 UNK        -0.5220 
     39 N          29.6486   28.6512   -0.4542 N.am      6 UNK        -0.4450 
     40 CA         29.9901   29.4923    0.6867 C.3       6 UNK         0.0367 
     41 CB         31.3805   29.1198    1.2277 C.3       6 UNK        -0.1929 
     42 C          28.9262   29.3289    1.7729 C.2       6 UNK         0.5070 
     43 O          28.7607   28.2310    2.3104 O.2       6 UNK        -0.5237 
     44 N          28.2470   30.4318    2.1069 N.am      7 UNK        -0.4739 
     45 CA         27.3332   30.5192    3.2458 C.3       7 UNK         0.0276 
     46 CB         26.5533   31.8407    3.1710 C.3       7 UNK        -0.1927 
     47 C          28.1052   30.4170    4.5712 C.2       7 UNK         0.5013 
     48 O          29.2222   30.9319    4.6665 O.2       7 UNK        -0.5193 
     49 N          27.5021   29.7367    5.5562 N.am      8 UNK        -0.4253 
     50 CA         28.0168   29.4984    6.9145 C.3       8 UNK         0.0242 
     51 CB         28.0575   30.8228    7.7074 C.3       8 UNK        -0.2000 
     52 C          29.3652   28.7443    6.9884 C.2       8 UNK         0.4948 
     53 O          29.9871   28.7485    8.0517 O.2       8 UNK        -0.5275 
     54 N          29.7888   28.1116    5.8794 N.am      9 UNK        -0.4246 
     55 CA         31.0728   27.4224    5.6875 C.3       9 UNK         0.0261 
     56 CB         31.1449   26.1466    6.5550 C.3       9 UNK        -0.1959 
     57 C          32.2784   28.3608    5.9027 C.2       9 UNK         0.5033 
     58 O          33.2230   28.0002    6.6073 O.2       9 UNK        -0.5390 
     59 N          32.2054   29.5595    5.3025 N.am      10 UNK        -0.4215 
     60 CA         33.1077   30.7024    5.5031 C.3       10 UNK         0.0240 
     61 CB         32.7082   31.8286    4.5351 C.3       10 UNK        -0.1982 
     62 C          34.6220   30.4314    5.3982 C.2       10 UNK         0.4970 
     63 O          35.3906   31.1308    6.0600 O.2       10 UNK        -0.4916 
     64 N          35.0296   29.4468    4.5864 N.am      11 UNK        -0.4279 
     65 CA         36.4292   29.0056    4.4670 C.3       11 UNK         0.1003 
     66 C          36.9344   28.1012    5.6314 C.2       11 UNK         0.5709 
     67 N          36.0874   27.6462    6.5477 N.am      11 UNK        -0.7358 
     68 O          38.1286   27.8228    5.7152 O.2       11 UNK        -0.4999 
     69 C69        36.7385   28.4159    3.0650 C.3       12 UNK        -0.0954 
     70 S70        35.8458   26.8733    2.6687 S.3       12 UNK        -0.2268 
     71 C71        34.5285   27.5094    1.5899 C.3       12 UNK         0.0203 
     72 H72        25.4855   26.3294    6.2030 H         1 UNK         0.0888 
     73 H73        27.1270   26.7555    5.7225 H         1 UNK         0.0888 
     74 H74        25.7888   26.9808    4.5880 H         1 UNK         0.0888 
     75 H75        28.4019   25.1312    4.8387 H         1 UNK         0.3017 
     76 H76        27.5222   22.4427    4.6405 H         1 UNK         0.0873 
     77 H77        29.8480   22.0315    3.7460 H         1 UNK         0.0745 
     78 H78        29.8062   22.8772    5.2610 H         1 UNK         0.0745 
     79 H79        30.6609   22.9953    1.5511 H         1 UNK         0.0705 
     80 H80        32.1037   22.7853    2.5226 H         1 UNK         0.0705 
     81 H81        33.0481   25.6173    2.8777 H         1 UNK         0.1334 
     82 H82        34.1490   26.9312   -1.0524 H         1 UNK         0.1417 
     83 H83        31.4891   23.6082   -0.5773 H         1 UNK         0.1562 
     84 H84        32.1487   24.2213   -2.7638 H         1 UNK         0.0748 
     85 H85        33.7250   24.9610   -2.8839 H         1 UNK         0.0748 
     86 H86        30.2398   26.1356   -1.6579 H         1 UNK         0.0940 
     87 H87        29.7284   25.7736   -3.2828 H         1 UNK         0.0940 
     88 H88        29.8217   28.3141   -3.7638 H         1 UNK         0.0703 
     89 H89        27.7658   27.1477   -1.9894 H         1 UNK         0.3081 
     90 H90        25.2360   29.2631   -3.1944 H         1 UNK         0.0719 
     91 H91        25.2792   27.7142   -5.1521 H         1 UNK         0.0809 
     92 H92        25.5772   26.3469   -4.0883 H         1 UNK         0.0809 
     93 H93        24.0518   27.2293   -3.9952 H         1 UNK         0.0809 
     94 H94        25.2172   26.8031   -1.6832 H         1 UNK         0.2990 
     95 H95        26.1748   28.1609    1.4072 H         1 UNK         0.0690 
     96 H96        23.8016   28.9478    1.3462 H         1 UNK         0.0788 
     97 H97        23.9696   27.4615    2.2637 H         1 UNK         0.0788 
     98 H98        23.3086   27.4203    0.6279 H         1 UNK         0.0788 
     99 H99        25.1129   25.6512    1.0425 H         1 UNK         0.2993 
    100 H100       26.2099   23.7513    0.3432 H         1 UNK         0.0949 
    101 H101       28.3074   22.5775   -0.3557 H         1 UNK         0.0767 
    102 H102       27.8746   23.7882   -1.5536 H         1 UNK         0.0767 
    103 H103       29.1726   24.1107   -0.4125 H         1 UNK         0.0767 
    104 H104       28.0181   24.9795    2.2342 H         1 UNK         0.3013 
    105 H105       29.0489   27.8518   -0.2491 H         1 UNK         0.3121 
    106 H106       30.0087   30.5368    0.3678 H         1 UNK         0.0774 
    107 H107       31.4107   28.0784    1.5502 H         1 UNK         0.0815 
    108 H108       32.1539   29.2603    0.4725 H         1 UNK         0.0815 
    109 H109       31.6446   29.7379    2.0860 H         1 UNK         0.0815 
    110 H110       28.4597   31.2987    1.6349 H         1 UNK         0.2987 
    111 H111       26.6245   29.6912    3.1813 H         1 UNK         0.0949 
    112 H112       25.8421   31.9227    3.9941 H         1 UNK         0.0806 
    113 H113       27.2167   32.7050    3.2270 H         1 UNK         0.0806 
    114 H114       25.9840   31.9126    2.2438 H         1 UNK         0.0806 
    115 H115       26.5820   29.3601    5.3752 H         1 UNK         0.3010 
    116 H116       27.2896   28.8477    7.4026 H         1 UNK         0.0829 
    117 H117       28.8155   31.5033    7.3178 H         1 UNK         0.0813 
    118 H118       27.0967   31.3363    7.6736 H         1 UNK         0.0813 
    119 H119       28.2896   30.6471    8.7586 H         1 UNK         0.0813 
    120 H120       29.2163   28.1977    5.0504 H         1 UNK         0.3038 
    121 H121       31.1061   27.1172    4.6406 H         1 UNK         0.0769 
    122 H122       31.2024   26.3802    7.6185 H         1 UNK         0.0811 
    123 H123       32.0280   25.5576    6.3043 H         1 UNK         0.0811 
    124 H124       30.2762   25.5077    6.4005 H         1 UNK         0.0811 
    125 H125       31.3547   29.7687    4.7959 H         1 UNK         0.3204 
    126 H126       32.9272   31.0555    6.5203 H         1 UNK         0.0748 
    127 H127       33.3369   32.7093    4.6756 H         1 UNK         0.0771 
    128 H128       32.8080   31.5200    3.4939 H         1 UNK         0.0771 
    129 H129       31.6771   32.1446    4.6951 H         1 UNK         0.0771 
    130 H130       34.3402   28.8851    4.1128 H         1 UNK         0.2980 
    131 H131       37.0459   29.9035    4.5408 H         1 UNK         0.0545 
    132 H132       35.0930   27.8562    6.5001 H         1 UNK         0.3459 
    133 H133       36.4381   27.0699    7.2952 H         1 UNK         0.3459 
    134 H134       37.8068   28.2122    2.9737 H         1 UNK         0.0616 
    135 H135       36.5260   29.1643    2.3002 H         1 UNK         0.0616 
    136 H136       33.8824   28.1675    2.1701 H         1 UNK         0.0634 
    137 H137       34.9747   28.1218    0.8047 H         1 UNK         0.0634 
@<TRIPOS>BOND
     1    1    2 1    
     2    1   72 1    
     3    1   73 1    
     4    1   74 1    
     5    2    3 2    
     6    2    4 am   BACKBONE|DICT|INTERRES
     7    4    5 1    
     8    4   75 1    
     9    5    6 1    
    10    5   35 1    
    11    5   76 1    
    12    6    7 1    
    13    6   77 1    
    14    6   78 1    
    15    7    8 1    
    16    8    9 1    
    17    8   79 1    
    18    8   80 1    
    19    9   10 ar   
    20    9   14 ar   
    21   10   11 ar   
    22   10   81 1    
    23   11   12 ar   
    24   11   71 1    
    25   12   13 ar   
    26   12   82 1    
    27   13   14 ar   
    28   13   15 1    
    29   14   83 1    
    30   15   16 1    
    31   15   84 1    
    32   15   85 1    
    33   16   17 1    
    34   17   18 1    
    35   17   86 1    
    36   17   87 1    
    37   18   19 1    
    38   18   37 1    
    39   18   88 1    
    40   19   20 am   BACKBONE|DICT|INTERRES
    41   19   89 1    
    42   20   21 2    
    43   20   22 1    
    44   22   23 1    
    45   22   24 1    
    46   22   90 1    
    47   23   91 1    
    48   23   92 1    
    49   23   93 1    
    50   24   25 am   BACKBONE|DICT|INTERRES
    51   24   94 1    
    52   25   26 2    
    53   25   27 1    
    54   27   28 1    
    55   27   29 1    
    56   27   95 1    
    57   28   96 1    
    58   28   97 1    
    59   28   98 1    
    60   29   30 am   BACKBONE|DICT|INTERRES
    61   29   99 1    
    62   30   31 2    
    63   30   32 1    
    64   32   33 1    
    65   32   34 1    
    66   32  100 1    
    67   33  101 1    
    68   33  102 1    
    69   33  103 1    
    70   34   35 am   BACKBONE|DICT|INTERRES
    71   34  104 1    
    72   35   36 2    
    73   37   38 2    
    74   37   39 am   BACKBONE|DICT|INTERRES
    75   39   40 1    
    76   39  105 1    
    77   40   41 1    
    78   40   42 1    
    79   40  106 1    
    80   41  107 1    
    81   41  108 1    
    82   41  109 1    
    83   42   43 2    
    84   42   44 am   BACKBONE|DICT|INTERRES
    85   44   45 1    
    86   44  110 1    
    87   45   46 1    
    88   45   47 1    
    89   45  111 1    
    90   46  112 1    
    91   46  113 1    
    92   46  114 1    
    93   47   48 2    
    94   47   49 am   BACKBONE|DICT|INTERRES
    95   49   50 1    
    96   49  115 1    
    97   50   51 1    
    98   50   52 1    
    99   50  116 1    
   100   51  117 1    
   101   51  118 1    
   102   51  119 1    
   103   52   53 2    
   104   52   54 am   BACKBONE|DICT|INTERRES
   105   54   55 1    
   106   54  120 1    
   107   55   56 1    
   108   55   57 1    
   109   55  121 1    
   110   56  122 1    
   111   56  123 1    
   112   56  124 1    
   113   57   58 2    
   114   57   59 am   BACKBONE|DICT|INTERRES
   115   59   60 1    
   116   59  125 1    
   117   60   61 1    
   118   60   62 1    
   119   60  126 1    
   120   61  127 1    
   121   61  128 1    
   122   61  129 1    
   123   62   63 2    
   124   62   64 am   BACKBONE|DICT|INTERRES
   125   64   65 1    
   126   64  130 1    
   127   65   66 1    
   128   65   69 1    
   129   65  131 1    
   130   66   67 am   BACKBONE|DICT|INTERRES
   131   66   68 2    
   132   67  132 1    
   133   67  133 1    
   134   69   70 1    
   135   69  134 1    
   136   69  135 1    
   137   70   71 1    
   138   71  136 1    
   139   71  137 1    
@<TRIPOS>SUBSTRUCTURE
     1 UNK         1 GROUP             0       ****    0 ROOT    
