@<TRIPOS>MOLECULE
3R136
137   139    1
SMALL
USER_CHARGES


@<TRIPOS>ATOM
      1 CA         25.1650   23.4074    2.2009 C.3       0 UNK        -0.1979 
      2 C          26.4695   23.5510    1.4335 C.2       0 UNK         0.4864 
      3 O          27.0857   24.6158    1.4920 O.2       0 UNK        -0.5359 
      4 N          26.8830   22.4966    0.7127 N.am      1 UNK        -0.4318 
      5 CA         28.1168   22.4051   -0.0838 C.3       1 UNK         0.0824 
      6 C6         29.3885   22.3928    0.8081 C.3       12 UNK        -0.0944 
      7 S7         30.7812   21.5054    0.0344 S.3       12 UNK        -0.2672 
      8 C8         31.7941   21.0861    1.4915 C.3       12 UNK         0.0333 
      9 C9         32.2227   22.3282    2.2607 C.ar      12 UNK        -0.0807 
     10 C10        33.1524   23.2112    1.7047 C.ar      12 UNK        -0.0894 
     11 C11        33.5297   24.3717    2.3866 C.ar      12 UNK        -0.0804 
     12 C12        32.9601   24.6445    3.6349 C.ar      12 UNK        -0.0824 
     13 C13        32.0203   23.7771    4.2008 C.ar      12 UNK        -0.0762 
     14 C14        31.6777   22.6041    3.5184 C.ar      12 UNK        -0.0782 
     15 C15        31.4018   24.1253    5.5537 C.3       12 UNK         0.0230 
     16 S16        29.6020   23.8175    5.6917 S.3       12 UNK        -0.2608 
     17 C17        28.9046   24.4678    4.1344 C.3       12 UNK        -0.0989 
     18 CA         29.1171   25.9839    3.8978 C.3       5 UNK         0.0716 
     19 N          29.1474   26.2954    2.4673 N.am      5 UNK        -0.4135 
     20 C          29.7881   27.3447    1.9348 C.2       4 UNK         0.5031 
     21 O          30.5112   28.0999    2.5824 O.2       4 UNK        -0.5229 
     22 CA         29.5784   27.6166    0.4342 C.3       4 UNK         0.0329 
     23 CB         30.7339   27.0315   -0.3912 C.3       4 UNK        -0.2001 
     24 N          28.3011   27.1086   -0.0785 N.am      4 UNK        -0.4303 
     25 C          27.1137   27.6753    0.1849 C.2       3 UNK         0.5044 
     26 O          26.9934   28.6502    0.9250 O.2       3 UNK        -0.5152 
     27 CA         25.8320   27.0574   -0.4109 C.3       3 UNK         0.0319 
     28 CB         24.9329   28.1219   -1.0731 C.3       3 UNK        -0.2001 
     29 N          26.0492   25.9087   -1.2956 N.am      3 UNK        -0.4354 
     30 C          26.6155   25.8727   -2.5113 C.2       2 UNK         0.4964 
     31 O          26.9874   26.8685   -3.1332 O.2       2 UNK        -0.5047 
     32 CA         26.8282   24.4600   -3.1010 C.3       2 UNK         0.0288 
     33 CB         27.8945   24.4304   -4.2176 C.3       2 UNK        -0.2113 
     34 N          27.1232   23.4515   -2.0671 N.am      2 UNK        -0.4145 
     35 C          28.1461   23.4797   -1.1952 C.2       1 UNK         0.5006 
     36 O          29.0159   24.3522   -1.2001 O.2       1 UNK        -0.5103 
     37 C          28.0412   26.8261    4.6101 C.2       5 UNK         0.5055 
     38 O          28.2471   27.2276    5.7556 O.2       5 UNK        -0.5220 
     39 N          26.9173   27.0825    3.9200 N.am      6 UNK        -0.4450 
     40 CA         25.8149   27.9200    4.3985 C.3       6 UNK         0.0367 
     41 CB         24.5892   27.7468    3.4857 C.3       6 UNK        -0.1929 
     42 C          26.2321   29.3954    4.5071 C.2       6 UNK         0.5070 
     43 O          26.1229   29.9848    5.5826 O.2       6 UNK        -0.5237 
     44 N          26.7644   29.9496    3.4111 N.am      7 UNK        -0.4739 
     45 CA         27.4106   31.2599    3.3634 C.3       7 UNK         0.0276 
     46 CB         27.1869   31.8819    1.9724 C.3       7 UNK        -0.1927 
     47 C          28.8997   31.0881    3.7026 C.2       7 UNK         0.5013 
     48 O          29.7562   31.3039    2.8436 O.2       7 UNK        -0.5193 
     49 N          29.1680   30.6789    4.9527 N.am      8 UNK        -0.4253 
     50 CA         30.4637   30.2342    5.4865 C.3       8 UNK         0.0242 
     51 CB         30.3253   29.9766    6.9951 C.3       8 UNK        -0.2000 
     52 C          31.6633   31.1580    5.2156 C.2       8 UNK         0.4948 
     53 O          32.7868   30.6648    5.1183 O.2       8 UNK        -0.5275 
     54 N          31.4125   32.4638    5.0445 N.am      9 UNK        -0.4246 
     55 CA         32.3882   33.4720    4.6171 C.3       9 UNK         0.0261 
     56 CB         31.7073   34.8501    4.5964 C.3       9 UNK        -0.1959 
     57 C          33.0548   33.1808    3.2555 C.2       9 UNK         0.5033 
     58 O          34.1455   33.6970    3.0083 O.2       9 UNK        -0.5390 
     59 N          32.4189   32.3548    2.4094 N.am      10 UNK        -0.4215 
     60 CA         32.9883   31.8441    1.1601 C.3       10 UNK         0.0240 
     61 CB         31.8814   31.1567    0.3434 C.3       10 UNK        -0.1982 
     62 C          34.1663   30.8734    1.3729 C.2       10 UNK         0.4970 
     63 O          35.0253   30.7880    0.4938 O.2       10 UNK        -0.4916 
     64 N          34.1848   30.1656    2.5099 N.am      11 UNK        -0.4279 
     65 CA         35.2130   29.1805    2.8787 C.3       11 UNK         0.1003 
     66 C          36.0870   29.6456    4.0740 C.2       11 UNK         0.5709 
     67 N          35.5740   30.4370    5.0072 N.am      11 UNK        -0.7358 
     68 O          37.2617   29.2925    4.1473 O.2       11 UNK        -0.4999 
     69 C69        34.5780   27.7947    3.1602 C.3       12 UNK        -0.0954 
     70 S70        33.9541   27.0249    1.6262 S.3       12 UNK        -0.2268 
     71 C71        34.5607   25.3120    1.7708 C.3       12 UNK         0.0203 
     72 H72        24.7174   22.4230    2.0665 H         1 UNK         0.0888 
     73 H73        25.3403   23.5586    3.2656 H         1 UNK         0.0888 
     74 H74        24.4487   24.1564    1.8647 H         1 UNK         0.0888 
     75 H75        26.3136   21.6612    0.7104 H         1 UNK         0.3017 
     76 H76        28.0584   21.4418   -0.5935 H         1 UNK         0.0873 
     77 H77        29.7067   23.4017    1.0767 H         1 UNK         0.0745 
     78 H78        29.1681   21.8889    1.7505 H         1 UNK         0.0745 
     79 H79        32.6801   20.5411    1.1627 H         1 UNK         0.0705 
     80 H80        31.2345   20.4031    2.1326 H         1 UNK         0.0705 
     81 H81        33.5743   22.9935    0.7328 H         1 UNK         0.1334 
     82 H82        33.2442   25.5422    4.1645 H         1 UNK         0.1417 
     83 H83        30.9599   21.9224    3.9539 H         1 UNK         0.1562 
     84 H84        31.5838   25.1734    5.7961 H         1 UNK         0.0748 
     85 H85        31.9105   23.5462    6.3253 H         1 UNK         0.0748 
     86 H86        27.8448   24.2087    4.1051 H         1 UNK         0.0940 
     87 H87        29.3471   23.8999    3.3191 H         1 UNK         0.0940 
     88 H88        30.0835   26.2695    4.3161 H         1 UNK         0.0703 
     89 H89        28.5512   25.7224    1.8733 H         1 UNK         0.3081 
     90 H90        29.5840   28.7001    0.2956 H         1 UNK         0.0719 
     91 H91        30.8797   25.9695   -0.1883 H         1 UNK         0.0809 
     92 H92        30.5640   27.1508   -1.4613 H         1 UNK         0.0809 
     93 H93        31.6684   27.5395   -0.1538 H         1 UNK         0.0809 
     94 H94        28.3389   26.2632   -0.6380 H         1 UNK         0.2990 
     95 H95        25.2821   26.6579    0.4421 H         1 UNK         0.0690 
     96 H96        25.4393   28.6275   -1.8955 H         1 UNK         0.0788 
     97 H97        24.6426   28.8896   -0.3546 H         1 UNK         0.0788 
     98 H98        24.0150   27.6812   -1.4620 H         1 UNK         0.0788 
     99 H99        25.8198   25.0173   -0.8808 H         1 UNK         0.2993 
    100 H100       25.8746   24.1759   -3.5489 H         1 UNK         0.0949 
    101 H101       28.8669   24.7701   -3.8594 H         1 UNK         0.0767 
    102 H102       28.0182   23.4255   -4.6212 H         1 UNK         0.0767 
    103 H103       27.6102   25.0788   -5.0474 H         1 UNK         0.0767 
    104 H104       26.4440   22.7080   -1.9758 H         1 UNK         0.3013 
    105 H105       26.8381   26.7112    2.9841 H         1 UNK         0.3121 
    106 H106       25.5423   27.5756    5.3985 H         1 UNK         0.0774 
    107 H107       24.2725   26.7047    3.4391 H         1 UNK         0.0815 
    108 H108       23.7438   28.3249    3.8611 H         1 UNK         0.0815 
    109 H109       24.7839   28.0847    2.4679 H         1 UNK         0.0815 
    110 H110       26.8438   29.3911    2.5612 H         1 UNK         0.2987 
    111 H111       26.9676   31.9272    4.1061 H         1 UNK         0.0949 
    112 H112       27.6291   31.2749    1.1811 H         1 UNK         0.0806 
    113 H113       26.1249   31.9923    1.7537 H         1 UNK         0.0806 
    114 H114       27.6374   32.8733    1.9121 H         1 UNK         0.0806 
    115 H115       28.3693   30.5179    5.5540 H         1 UNK         0.3010 
    116 H116       30.6873   29.2823    5.0010 H         1 UNK         0.0829 
    117 H117       31.2633   29.6132    7.4177 H         1 UNK         0.0813 
    118 H118       30.0522   30.8836    7.5358 H         1 UNK         0.0813 
    119 H119       29.5673   29.2205    7.2009 H         1 UNK         0.0813 
    120 H120       30.4548   32.7708    5.1312 H         1 UNK         0.3038 
    121 H121       33.1834   33.4915    5.3651 H         1 UNK         0.0769 
    122 H122       32.4141   35.6307    4.3111 H         1 UNK         0.0811 
    123 H123       31.3150   35.1154    5.5784 H         1 UNK         0.0811 
    124 H124       30.8824   34.8812    3.8833 H         1 UNK         0.0811 
    125 H125       31.5030   31.9896    2.6690 H         1 UNK         0.3204 
    126 H126       33.3598   32.6958    0.5866 H         1 UNK         0.0748 
    127 H127       32.2621   30.8053   -0.6166 H         1 UNK         0.0771 
    128 H128       31.4763   30.2912    0.8703 H         1 UNK         0.0771 
    129 H129       31.0558   31.8382    0.1377 H         1 UNK         0.0771 
    130 H130       33.4666   30.3270    3.2060 H         1 UNK         0.2980 
    131 H131       35.9103   29.0534    2.0483 H         1 UNK         0.0545 
    132 H132       34.5783   30.6476    5.0155 H         1 UNK         0.3459 
    133 H133       36.1568   30.7384    5.7709 H         1 UNK         0.3459 
    134 H134       35.3047   27.1263    3.6246 H         1 UNK         0.0616 
    135 H135       33.7519   27.8885    3.8676 H         1 UNK         0.0616 
    136 H136       35.4840   25.2740    2.3493 H         1 UNK         0.0634 
    137 H137       34.8237   24.9741    0.7673 H         1 UNK         0.0634 
@<TRIPOS>BOND
     1    1    2 1    
     2    1   72 1    
     3    1   73 1    
     4    1   74 1    
     5    2    3 2    
     6    2    4 am   BACKBONE|DICT|INTERRES
     7    4    5 1    
     8    4   75 1    
     9    5    6 1    
    10    5   35 1    
    11    5   76 1    
    12    6    7 1    
    13    6   77 1    
    14    6   78 1    
    15    7    8 1    
    16    8    9 1    
    17    8   79 1    
    18    8   80 1    
    19    9   10 ar   
    20    9   14 ar   
    21   10   11 ar   
    22   10   81 1    
    23   11   12 ar   
    24   11   71 1    
    25   12   13 ar   
    26   12   82 1    
    27   13   14 ar   
    28   13   15 1    
    29   14   83 1    
    30   15   16 1    
    31   15   84 1    
    32   15   85 1    
    33   16   17 1    
    34   17   18 1    
    35   17   86 1    
    36   17   87 1    
    37   18   19 1    
    38   18   37 1    
    39   18   88 1    
    40   19   20 am   BACKBONE|DICT|INTERRES
    41   19   89 1    
    42   20   21 2    
    43   20   22 1    
    44   22   23 1    
    45   22   24 1    
    46   22   90 1    
    47   23   91 1    
    48   23   92 1    
    49   23   93 1    
    50   24   25 am   BACKBONE|DICT|INTERRES
    51   24   94 1    
    52   25   26 2    
    53   25   27 1    
    54   27   28 1    
    55   27   29 1    
    56   27   95 1    
    57   28   96 1    
    58   28   97 1    
    59   28   98 1    
    60   29   30 am   BACKBONE|DICT|INTERRES
    61   29   99 1    
    62   30   31 2    
    63   30   32 1    
    64   32   33 1    
    65   32   34 1    
    66   32  100 1    
    67   33  101 1    
    68   33  102 1    
    69   33  103 1    
    70   34   35 am   BACKBONE|DICT|INTERRES
    71   34  104 1    
    72   35   36 2    
    73   37   38 2    
    74   37   39 am   BACKBONE|DICT|INTERRES
    75   39   40 1    
    76   39  105 1    
    77   40   41 1    
    78   40   42 1    
    79   40  106 1    
    80   41  107 1    
    81   41  108 1    
    82   41  109 1    
    83   42   43 2    
    84   42   44 am   BACKBONE|DICT|INTERRES
    85   44   45 1    
    86   44  110 1    
    87   45   46 1    
    88   45   47 1    
    89   45  111 1    
    90   46  112 1    
    91   46  113 1    
    92   46  114 1    
    93   47   48 2    
    94   47   49 am   BACKBONE|DICT|INTERRES
    95   49   50 1    
    96   49  115 1    
    97   50   51 1    
    98   50   52 1    
    99   50  116 1    
   100   51  117 1    
   101   51  118 1    
   102   51  119 1    
   103   52   53 2    
   104   52   54 am   BACKBONE|DICT|INTERRES
   105   54   55 1    
   106   54  120 1    
   107   55   56 1    
   108   55   57 1    
   109   55  121 1    
   110   56  122 1    
   111   56  123 1    
   112   56  124 1    
   113   57   58 2    
   114   57   59 am   BACKBONE|DICT|INTERRES
   115   59   60 1    
   116   59  125 1    
   117   60   61 1    
   118   60   62 1    
   119   60  126 1    
   120   61  127 1    
   121   61  128 1    
   122   61  129 1    
   123   62   63 2    
   124   62   64 am   BACKBONE|DICT|INTERRES
   125   64   65 1    
   126   64  130 1    
   127   65   66 1    
   128   65   69 1    
   129   65  131 1    
   130   66   67 am   BACKBONE|DICT|INTERRES
   131   66   68 2    
   132   67  132 1    
   133   67  133 1    
   134   69   70 1    
   135   69  134 1    
   136   69  135 1    
   137   70   71 1    
   138   71  136 1    
   139   71  137 1    
@<TRIPOS>SUBSTRUCTURE
     1 UNK         1 GROUP             0       ****    0 ROOT    
