@<TRIPOS>MOLECULE
3R136
137   139    1
SMALL
USER_CHARGES


@<TRIPOS>ATOM
      1 CA         27.4741   19.0652    3.4486 C.3       0 UNK        -0.1979 
      2 C          27.7988   19.8783    2.2041 C.2       0 UNK         0.4864 
      3 O          27.4475   19.4676    1.0974 O.2       0 UNK        -0.5359 
      4 N          28.4670   21.0270    2.3786 N.am      1 UNK        -0.4318 
      5 CA         28.8711   21.9378    1.2968 C.3       1 UNK         0.0824 
      6 C6         29.9603   22.9384    1.7571 C.3       12 UNK        -0.0944 
      7 S7         31.4830   22.0751    2.2740 S.3       12 UNK        -0.2672 
      8 C8         31.5588   22.4536    4.0528 C.3       12 UNK         0.0333 
      9 C9         32.1514   23.8319    4.3006 C.ar      12 UNK        -0.0807 
     10 C10        33.5359   24.0125    4.2388 C.ar      12 UNK        -0.0894 
     11 C11        34.0994   25.2736    4.4509 C.ar      12 UNK        -0.0804 
     12 C12        33.2682   26.3583    4.7429 C.ar      12 UNK        -0.0824 
     13 C13        31.8819   26.1879    4.8115 C.ar      12 UNK        -0.0762 
     14 C14        31.3275   24.9231    4.5916 C.ar      12 UNK        -0.0782 
     15 C15        30.9871   27.3775    5.1143 C.3       12 UNK         0.0230 
     16 S16        30.7450   28.3989    3.6334 S.3       12 UNK        -0.2608 
     17 C17        29.5814   27.3848    2.6704 C.3       12 UNK        -0.0989 
     18 CA         28.9647   28.2025    1.5075 C.3       5 UNK         0.0716 
     19 N          28.6657   27.3613    0.3541 N.am      5 UNK        -0.4135 
     20 C          29.4982   27.1570   -0.6743 C.2       4 UNK         0.5031 
     21 O          30.6474   27.6012   -0.7072 O.2       4 UNK        -0.5229 
     22 CA         28.9932   26.3249   -1.8718 C.3       4 UNK         0.0329 
     23 CB         29.8653   25.0764   -2.0830 C.3       4 UNK        -0.2001 
     24 N          27.5870   25.9241   -1.7590 N.am      4 UNK        -0.4303 
     25 C          26.5495   26.7478   -1.9742 C.2       3 UNK         0.5044 
     26 O          26.6789   27.9025   -2.3824 O.2       3 UNK        -0.5152 
     27 CA         25.1292   26.2252   -1.6778 C.3       3 UNK         0.0319 
     28 CB         24.3594   25.9901   -2.9882 C.3       3 UNK        -0.2001 
     29 N          25.0646   25.0045   -0.8678 N.am      3 UNK        -0.4354 
     30 C          25.5051   24.8626    0.3904 C.2       2 UNK         0.4964 
     31 O          26.0714   25.7535    1.0233 O.2       2 UNK        -0.5047 
     32 CA         25.3190   23.4820    1.0506 C.3       2 UNK         0.0288 
     33 CB         24.5068   22.4751    0.2024 C.3       2 UNK        -0.2113 
     34 N          26.5994   22.8830    1.4441 N.am      2 UNK        -0.4145 
     35 C          27.6728   22.6762    0.6622 C.2       1 UNK         0.5006 
     36 O          27.7399   23.0245   -0.5187 O.2       1 UNK        -0.5103 
     37 C          27.7117   29.0056    1.9033 C.2       5 UNK         0.5055 
     38 O          26.6355   28.7998    1.3365 O.2       5 UNK        -0.5220 
     39 N          27.8812   29.9326    2.8500 N.am      6 UNK        -0.4450 
     40 CA         26.8472   30.8259    3.3649 C.3       6 UNK         0.0367 
     41 CB         26.6365   32.0053    2.3882 C.3       6 UNK        -0.1929 
     42 C          27.2494   31.2611    4.7832 C.2       6 UNK         0.5070 
     43 O          27.9231   30.5017    5.4829 O.2       6 UNK        -0.5237 
     44 N          26.8498   32.4754    5.1877 N.am      7 UNK        -0.4739 
     45 CA         27.2846   33.1146    6.4357 C.3       7 UNK         0.0276 
     46 CB         26.4156   34.3533    6.7067 C.3       7 UNK        -0.1927 
     47 C          28.7784   33.4918    6.4170 C.2       7 UNK         0.5013 
     48 O          29.4214   33.4732    7.4674 O.2       7 UNK        -0.5193 
     49 N          29.3013   33.8025    5.2231 N.am      8 UNK        -0.4253 
     50 CA         30.7288   33.9401    4.9497 C.3       8 UNK         0.0242 
     51 CB         30.9297   34.9230    3.7847 C.3       8 UNK        -0.2000 
     52 C          31.2991   32.5619    4.5903 C.2       8 UNK         0.4948 
     53 O          30.6574   31.8164    3.8436 O.2       8 UNK        -0.5275 
     54 N          32.5022   32.2609    5.0944 N.am      9 UNK        -0.4246 
     55 CA         33.2162   30.9981    4.8883 C.3       9 UNK         0.0261 
     56 CB         34.2721   30.8313    5.9972 C.3       9 UNK        -0.1959 
     57 C          33.8219   30.8940    3.4743 C.2       9 UNK         0.5033 
     58 O          35.0457   30.8921    3.3281 O.2       9 UNK        -0.5390 
     59 N          32.9526   30.8360    2.4568 N.am      10 UNK        -0.4215 
     60 CA         33.3163   30.7316    1.0406 C.3       10 UNK         0.0240 
     61 CB         32.0726   30.9405    0.1636 C.3       10 UNK        -0.1982 
     62 C          34.0244   29.4110    0.6901 C.2       10 UNK         0.4970 
     63 O          34.9653   29.4382   -0.1045 O.2       10 UNK        -0.4916 
     64 N          33.5939   28.3037    1.3156 N.am      11 UNK        -0.4279 
     65 CA         34.2467   26.9844    1.2507 C.3       11 UNK         0.1003 
     66 C          34.2928   26.3547   -0.1784 C.2       11 UNK         0.5709 
     67 N          33.2925   26.5777   -1.0212 N.am      11 UNK        -0.7358 
     68 O          35.2350   25.6541   -0.5414 O.2       11 UNK        -0.4999 
     69 C69        35.6231   27.0167    1.9841 C.3       12 UNK        -0.0954 
     70 S70        36.1705   25.3972    2.6234 S.3       12 UNK        -0.2268 
     71 C71        35.6054   25.4567    4.3525 C.3       12 UNK         0.0203 
     72 H72        26.3955   18.9463    3.5481 H         1 UNK         0.0888 
     73 H73        27.9212   18.0741    3.3758 H         1 UNK         0.0888 
     74 H74        27.8482   19.5394    4.3558 H         1 UNK         0.0888 
     75 H75        28.7511   21.2966    3.3090 H         1 UNK         0.3017 
     76 H76        29.3017   21.3252    0.5011 H         1 UNK         0.0873 
     77 H77        29.5895   23.5727    2.5636 H         1 UNK         0.0745 
     78 H78        30.2340   23.6142    0.9458 H         1 UNK         0.0745 
     79 H79        32.1788   21.7017    4.5435 H         1 UNK         0.0705 
     80 H80        30.5673   22.3658    4.4993 H         1 UNK         0.0705 
     81 H81        34.1764   23.1724    4.0062 H         1 UNK         0.1334 
     82 H82        33.6965   27.3384    4.9028 H         1 UNK         0.1417 
     83 H83        30.2554   24.7910    4.6421 H         1 UNK         0.1562 
     84 H84        30.0208   27.0563    5.5062 H         1 UNK         0.0748 
     85 H85        31.4436   27.9886    5.8944 H         1 UNK         0.0748 
     86 H86        28.8107   26.9621    3.3181 H         1 UNK         0.0940 
     87 H87        30.1484   26.5365    2.2823 H         1 UNK         0.0940 
     88 H88        29.6833   28.9553    1.1838 H         1 UNK         0.0703 
     89 H89        27.7153   27.0053    0.3239 H         1 UNK         0.3081 
     90 H90        29.0992   26.9533   -2.7585 H         1 UNK         0.0719 
     91 H91        30.8999   25.3529   -2.2877 H         1 UNK         0.0809 
     92 H92        29.8713   24.4340   -1.2042 H         1 UNK         0.0809 
     93 H93        29.5164   24.4846   -2.9294 H         1 UNK         0.0809 
     94 H94        27.4087   24.9865   -1.4151 H         1 UNK         0.2990 
     95 H95        24.6175   27.0109   -1.1179 H         1 UNK         0.0690 
     96 H96        23.3202   25.7217   -2.7971 H         1 UNK         0.0788 
     97 H97        24.8100   25.1942   -3.5827 H         1 UNK         0.0788 
     98 H98        24.3495   26.8907   -3.6042 H         1 UNK         0.0788 
     99 H99        24.6463   24.1980   -1.3087 H         1 UNK         0.2993 
    100 H100       24.7627   23.6642    1.9714 H         1 UNK         0.0949 
    101 H101       25.0095   22.2220   -0.7321 H         1 UNK         0.0767 
    102 H102       24.3534   21.5443    0.7491 H         1 UNK         0.0767 
    103 H103       23.5170   22.8647   -0.0400 H         1 UNK         0.0767 
    104 H104       26.6626   22.5848    2.4068 H         1 UNK         0.3013 
    105 H105       28.7758   30.0019    3.3258 H         1 UNK         0.3121 
    106 H106       25.9125   30.2691    3.4581 H         1 UNK         0.0774 
    107 H107       25.8025   32.6377    2.6936 H         1 UNK         0.0815 
    108 H108       27.5267   32.6316    2.3163 H         1 UNK         0.0815 
    109 H109       26.4031   31.6507    1.3841 H         1 UNK         0.0815 
    110 H110       26.2755   33.0284    4.5675 H         1 UNK         0.2987 
    111 H111       27.1359   32.4047    7.2527 H         1 UNK         0.0949 
    112 H112       25.3618   34.0881    6.7934 H         1 UNK         0.0806 
    113 H113       26.7047   34.8338    7.6426 H         1 UNK         0.0806 
    114 H114       26.5120   35.0979    5.9155 H         1 UNK         0.0806 
    115 H115       28.7007   33.7301    4.4158 H         1 UNK         0.3010 
    116 H116       31.2387   34.3317    5.8328 H         1 UNK         0.0829 
    117 H117       30.4533   34.5694    2.8690 H         1 UNK         0.0813 
    118 H118       31.9900   35.0594    3.5679 H         1 UNK         0.0813 
    119 H119       30.5181   35.9049    4.0192 H         1 UNK         0.0813 
    120 H120       32.9753   32.9510    5.6603 H         1 UNK         0.3038 
    121 H121       32.5035   30.1810    5.0003 H         1 UNK         0.0769 
    122 H122       33.8125   30.8282    6.9858 H         1 UNK         0.0811 
    123 H123       35.0147   31.6299    5.9739 H         1 UNK         0.0811 
    124 H124       34.8060   29.8862    5.8881 H         1 UNK         0.0811 
    125 H125       31.9655   30.9166    2.6892 H         1 UNK         0.3204 
    126 H126       34.0154   31.5430    0.8272 H         1 UNK         0.0748 
    127 H127       31.3465   30.1413    0.2981 H         1 UNK         0.0771 
    128 H128       31.5798   31.8870    0.3869 H         1 UNK         0.0771 
    129 H129       32.3420   30.9549   -0.8933 H         1 UNK         0.0771 
    130 H130       32.7907   28.3715    1.9242 H         1 UNK         0.2980 
    131 H131       33.5887   26.3251    1.8167 H         1 UNK         0.0545 
    132 H132       33.3394   26.1754   -1.9424 H         1 UNK         0.3459 
    133 H133       32.4714   27.1123   -0.7501 H         1 UNK         0.3459 
    134 H134       35.5841   27.7093    2.8266 H         1 UNK         0.0616 
    135 H135       36.3986   27.4088    1.3240 H         1 UNK         0.0616 
    136 H136       35.9213   26.3936    4.8140 H         1 UNK         0.0634 
    137 H137       36.1002   24.6601    4.9099 H         1 UNK         0.0634 
@<TRIPOS>BOND
     1    1    2 1    
     2    1   72 1    
     3    1   73 1    
     4    1   74 1    
     5    2    3 2    
     6    2    4 am   BACKBONE|DICT|INTERRES
     7    4    5 1    
     8    4   75 1    
     9    5    6 1    
    10    5   35 1    
    11    5   76 1    
    12    6    7 1    
    13    6   77 1    
    14    6   78 1    
    15    7    8 1    
    16    8    9 1    
    17    8   79 1    
    18    8   80 1    
    19    9   10 ar   
    20    9   14 ar   
    21   10   11 ar   
    22   10   81 1    
    23   11   12 ar   
    24   11   71 1    
    25   12   13 ar   
    26   12   82 1    
    27   13   14 ar   
    28   13   15 1    
    29   14   83 1    
    30   15   16 1    
    31   15   84 1    
    32   15   85 1    
    33   16   17 1    
    34   17   18 1    
    35   17   86 1    
    36   17   87 1    
    37   18   19 1    
    38   18   37 1    
    39   18   88 1    
    40   19   20 am   BACKBONE|DICT|INTERRES
    41   19   89 1    
    42   20   21 2    
    43   20   22 1    
    44   22   23 1    
    45   22   24 1    
    46   22   90 1    
    47   23   91 1    
    48   23   92 1    
    49   23   93 1    
    50   24   25 am   BACKBONE|DICT|INTERRES
    51   24   94 1    
    52   25   26 2    
    53   25   27 1    
    54   27   28 1    
    55   27   29 1    
    56   27   95 1    
    57   28   96 1    
    58   28   97 1    
    59   28   98 1    
    60   29   30 am   BACKBONE|DICT|INTERRES
    61   29   99 1    
    62   30   31 2    
    63   30   32 1    
    64   32   33 1    
    65   32   34 1    
    66   32  100 1    
    67   33  101 1    
    68   33  102 1    
    69   33  103 1    
    70   34   35 am   BACKBONE|DICT|INTERRES
    71   34  104 1    
    72   35   36 2    
    73   37   38 2    
    74   37   39 am   BACKBONE|DICT|INTERRES
    75   39   40 1    
    76   39  105 1    
    77   40   41 1    
    78   40   42 1    
    79   40  106 1    
    80   41  107 1    
    81   41  108 1    
    82   41  109 1    
    83   42   43 2    
    84   42   44 am   BACKBONE|DICT|INTERRES
    85   44   45 1    
    86   44  110 1    
    87   45   46 1    
    88   45   47 1    
    89   45  111 1    
    90   46  112 1    
    91   46  113 1    
    92   46  114 1    
    93   47   48 2    
    94   47   49 am   BACKBONE|DICT|INTERRES
    95   49   50 1    
    96   49  115 1    
    97   50   51 1    
    98   50   52 1    
    99   50  116 1    
   100   51  117 1    
   101   51  118 1    
   102   51  119 1    
   103   52   53 2    
   104   52   54 am   BACKBONE|DICT|INTERRES
   105   54   55 1    
   106   54  120 1    
   107   55   56 1    
   108   55   57 1    
   109   55  121 1    
   110   56  122 1    
   111   56  123 1    
   112   56  124 1    
   113   57   58 2    
   114   57   59 am   BACKBONE|DICT|INTERRES
   115   59   60 1    
   116   59  125 1    
   117   60   61 1    
   118   60   62 1    
   119   60  126 1    
   120   61  127 1    
   121   61  128 1    
   122   61  129 1    
   123   62   63 2    
   124   62   64 am   BACKBONE|DICT|INTERRES
   125   64   65 1    
   126   64  130 1    
   127   65   66 1    
   128   65   69 1    
   129   65  131 1    
   130   66   67 am   BACKBONE|DICT|INTERRES
   131   66   68 2    
   132   67  132 1    
   133   67  133 1    
   134   69   70 1    
   135   69  134 1    
   136   69  135 1    
   137   70   71 1    
   138   71  136 1    
   139   71  137 1    
@<TRIPOS>SUBSTRUCTURE
     1 UNK         1 GROUP             0       ****    0 ROOT    
