@<TRIPOS>MOLECULE
3R136
137   139    1
SMALL
USER_CHARGES


@<TRIPOS>ATOM
      1 CA         29.8764   26.1545    1.1225 C.3       0 UNK        -0.1979 
      2 C          29.9188   25.3266   -0.1453 C.2       0 UNK         0.4864 
      3 O          30.5332   25.7432   -1.1276 O.2       0 UNK        -0.5359 
      4 N          29.2423   24.1718   -0.1370 N.am      1 UNK        -0.4318 
      5 CA         29.1029   23.1795   -1.2087 C.3       1 UNK         0.0824 
      6 C6         30.4482   22.5734   -1.6846 C.3       12 UNK        -0.0944 
      7 S7         31.2043   21.4976   -0.4156 S.3       12 UNK        -0.2672 
      8 C8         32.2843   22.6352    0.5298 C.3       12 UNK         0.0333 
      9 C9         31.7878   23.0039    1.9334 C.ar      12 UNK        -0.0807 
     10 C10        32.2744   24.1720    2.5345 C.ar      12 UNK        -0.0894 
     11 C11        31.8893   24.5261    3.8320 C.ar      12 UNK        -0.0804 
     12 C12        31.0194   23.6953    4.5405 C.ar      12 UNK        -0.0824 
     13 C13        30.5220   22.5255    3.9609 C.ar      12 UNK        -0.0762 
     14 C14        30.9081   22.1864    2.6596 C.ar      12 UNK        -0.0782 
     15 C15        29.6018   21.6081    4.7582 C.3       12 UNK         0.0230 
     16 S16        27.8362   21.9658    4.4789 S.3       12 UNK        -0.2608 
     17 C17        27.6399   23.5908    5.2881 C.3       12 UNK        -0.0989 
     18 CA         27.6356   24.7616    4.2668 C.3       5 UNK         0.0716 
     19 N          26.4202   24.7990    3.4537 N.am      5 UNK        -0.4135 
     20 C          26.3161   24.3525    2.1992 C.2       4 UNK         0.5031 
     21 O          27.1965   23.7187    1.6197 O.2       4 UNK        -0.5229 
     22 CA         25.0408   24.7270    1.4198 C.3       4 UNK         0.0329 
     23 CB         23.9058   25.3015    2.2994 C.3       4 UNK        -0.2001 
     24 N          25.3435   25.6495    0.3162 N.am      4 UNK        -0.4303 
     25 C          25.9809   26.8277    0.4041 C.2       3 UNK         0.5044 
     26 O          26.4363   27.2888    1.4538 O.2       3 UNK        -0.5152 
     27 CA         26.1679   27.5885   -0.9166 C.3       3 UNK         0.0319 
     28 CB         26.8064   28.9766   -0.7187 C.3       3 UNK        -0.2001 
     29 N          27.0087   26.7958   -1.8120 N.am      3 UNK        -0.4354 
     30 C          26.7397   26.4992   -3.0912 C.2       2 UNK         0.4964 
     31 O          25.7225   26.8645   -3.6807 O.2       2 UNK        -0.5047 
     32 CA         27.7818   25.6511   -3.8473 C.3       2 UNK         0.0288 
     33 CB         28.6932   26.5523   -4.6960 C.3       2 UNK        -0.2113 
     34 N          28.6104   24.8552   -2.9392 N.am      2 UNK        -0.4145 
     35 C          28.2306   23.7064   -2.3664 C.2       1 UNK         0.5006 
     36 O          27.2042   23.0999   -2.6771 O.2       1 UNK        -0.5103 
     37 C          27.8295   26.1481    4.9155 C.2       5 UNK         0.5055 
     38 O          28.1867   26.2251    6.0925 O.2       5 UNK        -0.5220 
     39 N          27.5572   27.2257    4.1613 N.am      6 UNK        -0.4450 
     40 CA         27.5933   28.6015    4.6563 C.3       6 UNK         0.0367 
     41 CB         26.2605   28.9388    5.3570 C.3       6 UNK        -0.1929 
     42 C          27.9441   29.5835    3.5278 C.2       6 UNK         0.5070 
     43 O          27.2121   30.5494    3.3025 O.2       6 UNK        -0.5237 
     44 N          29.0669   29.3361    2.8404 N.am      7 UNK        -0.4739 
     45 CA         29.6565   30.2885    1.8963 C.3       7 UNK         0.0276 
     46 CB         30.6413   29.5701    0.9615 C.3       7 UNK        -0.1927 
     47 C          30.3710   31.4145    2.6589 C.2       7 UNK         0.5013 
     48 O          31.1205   31.1288    3.5983 O.2       7 UNK        -0.5193 
     49 N          30.1409   32.6629    2.2286 N.am      8 UNK        -0.4253 
     50 CA         30.7270   33.8757    2.8053 C.3       8 UNK         0.0242 
     51 CB         30.1804   35.1091    2.0684 C.3       8 UNK        -0.2000 
     52 C          32.2619   33.8487    2.7503 C.2       8 UNK         0.4948 
     53 O          32.8251   33.5431    1.6958 O.2       8 UNK        -0.5275 
     54 N          32.8995   34.1290    3.8947 N.am      9 UNK        -0.4246 
     55 CA         34.3405   34.0646    4.1813 C.3       9 UNK         0.0261 
     56 CB         35.1456   35.0386    3.2983 C.3       9 UNK        -0.1959 
     57 C          34.9344   32.6436    4.1299 C.2       9 UNK         0.5033 
     58 O          35.6591   32.2683    5.0519 O.2       9 UNK        -0.5390 
     59 N          34.6105   31.8748    3.0824 N.am      10 UNK        -0.4215 
     60 CA         35.0868   30.5128    2.8266 C.3       10 UNK         0.0240 
     61 CB         34.5497   30.0300    1.4709 C.3       10 UNK        -0.1982 
     62 C          34.7486   29.5073    3.9406 C.2       10 UNK         0.4970 
     63 O          35.6070   28.6931    4.2838 O.2       10 UNK        -0.4916 
     64 N          33.5353   29.5979    4.5004 N.am      11 UNK        -0.4279 
     65 CA         33.1089   28.8248    5.6785 C.3       11 UNK         0.1003 
     66 C          33.3338   29.5760    7.0247 C.2       11 UNK         0.5709 
     67 N          34.0366   30.7028    7.0615 N.am      11 UNK        -0.7358 
     68 O          32.8792   29.1184    8.0707 O.2       11 UNK        -0.4999 
     69 C69        31.6544   28.2998    5.5364 C.3       12 UNK        -0.0954 
     70 S70        31.3967   27.2351    4.0791 S.3       12 UNK        -0.2268 
     71 C71        32.4237   25.7909    4.4877 C.3       12 UNK         0.0203 
     72 H72        30.8319   26.6569    1.2609 H         1 UNK         0.0888 
     73 H73        29.0884   26.9032    1.0692 H         1 UNK         0.0888 
     74 H74        29.7030   25.5289    1.9942 H         1 UNK         0.0888 
     75 H75        28.6716   23.9503    0.6804 H         1 UNK         0.3017 
     76 H76        28.5249   22.3685   -0.7614 H         1 UNK         0.0873 
     77 H77        30.2854   21.9468   -2.5636 H         1 UNK         0.0745 
     78 H78        31.1545   23.3425   -1.9993 H         1 UNK         0.0745 
     79 H79        33.2591   22.1580    0.6367 H         1 UNK         0.0705 
     80 H80        32.4548   23.5409   -0.0538 H         1 UNK         0.0705 
     81 H81        32.9597   24.8098    1.9926 H         1 UNK         0.1334 
     82 H82        30.7332   23.9610    5.5488 H         1 UNK         0.1417 
     83 H83        30.5307   21.2710    2.2265 H         1 UNK         0.1562 
     84 H84        29.8240   21.6770    5.8243 H         1 UNK         0.0748 
     85 H85        29.7929   20.5704    4.4810 H         1 UNK         0.0748 
     86 H86        28.4372   23.7031    6.0239 H         1 UNK         0.0940 
     87 H87        26.7113   23.5854    5.8612 H         1 UNK         0.0940 
     88 H88        28.5008   24.6340    3.6178 H         1 UNK         0.0703 
     89 H89        25.6524   25.3308    3.8380 H         1 UNK         0.3081 
     90 H90        24.6772   23.8025    0.9685 H         1 UNK         0.0719 
     91 H91        24.1696   26.2602    2.7480 H         1 UNK         0.0809 
     92 H92        23.0023   25.4586    1.7099 H         1 UNK         0.0809 
     93 H93        23.6408   24.6140    3.1040 H         1 UNK         0.0809 
     94 H94        25.0577   25.3378   -0.6016 H         1 UNK         0.2990 
     95 H95        25.1735   27.7282   -1.3456 H         1 UNK         0.0690 
     96 H96        26.2079   29.5904   -0.0440 H         1 UNK         0.0788 
     97 H97        26.8862   29.5143   -1.6635 H         1 UNK         0.0788 
     98 H98        27.8052   28.9022   -0.2897 H         1 UNK         0.0788 
     99 H99        27.8612   26.4339   -1.4115 H         1 UNK         0.2993 
    100 H100       27.2402   24.9791   -4.5170 H         1 UNK         0.0949 
    101 H101       29.3989   25.9622   -5.2811 H         1 UNK         0.0767 
    102 H102       28.1089   27.1482   -5.3987 H         1 UNK         0.0767 
    103 H103       29.2663   27.2444   -4.0773 H         1 UNK         0.0767 
    104 H104       29.4590   25.2885   -2.5787 H         1 UNK         0.3013 
    105 H105       27.2625   27.1190    3.1909 H         1 UNK         0.3121 
    106 H106       28.3955   28.6972    5.3914 H         1 UNK         0.0774 
    107 H107       25.4168   28.8549    4.6709 H         1 UNK         0.0815 
    108 H108       26.0743   28.2757    6.2017 H         1 UNK         0.0815 
    109 H109       26.2682   29.9579    5.7456 H         1 UNK         0.0815 
    110 H110       29.6514   28.5624    3.1288 H         1 UNK         0.2987 
    111 H111       28.8605   30.7202    1.2853 H         1 UNK         0.0949 
    112 H112       31.3856   29.0036    1.5208 H         1 UNK         0.0806 
    113 H113       30.1281   28.8857    0.2884 H         1 UNK         0.0806 
    114 H114       31.1769   30.2840    0.3340 H         1 UNK         0.0806 
    115 H115       29.5357   32.7962    1.4318 H         1 UNK         0.3010 
    116 H116       30.4082   33.9265    3.8486 H         1 UNK         0.0829 
    117 H117       29.0944   35.1698    2.1436 H         1 UNK         0.0813 
    118 H118       30.5850   36.0287    2.4935 H         1 UNK         0.0813 
    119 H119       30.4448   35.0965    1.0100 H         1 UNK         0.0813 
    120 H120       32.3256   34.3385    4.7005 H         1 UNK         0.3038 
    121 H121       34.4455   34.4047    5.2131 H         1 UNK         0.0769 
    122 H122       35.1155   34.7609    2.2444 H         1 UNK         0.0811 
    123 H123       36.1947   35.0543    3.5968 H         1 UNK         0.0811 
    124 H124       34.7686   36.0574    3.3870 H         1 UNK         0.0811 
    125 H125       33.9897   32.2909    2.3902 H         1 UNK         0.3204 
    126 H126       36.1755   30.5623    2.7592 H         1 UNK         0.0748 
    127 H127       34.8586   29.0039    1.2659 H         1 UNK         0.0771 
    128 H128       33.4617   30.0587    1.4418 H         1 UNK         0.0771 
    129 H129       34.9211   30.6500    0.6548 H         1 UNK         0.0771 
    130 H130       32.8642   30.2773    4.1544 H         1 UNK         0.2980 
    131 H131       33.7450   27.9432    5.7651 H         1 UNK         0.0545 
    132 H132       34.4821   31.0765    6.2323 H         1 UNK         0.3459 
    133 H133       34.1721   31.1612    7.9482 H         1 UNK         0.3459 
    134 H134       31.3566   27.7261    6.4159 H         1 UNK         0.0616 
    135 H135       30.9572   29.1365    5.4727 H         1 UNK         0.0616 
    136 H136       32.4586   25.6586    5.5702 H         1 UNK         0.0634 
    137 H137       33.4494   25.9795    4.1670 H         1 UNK         0.0634 
@<TRIPOS>BOND
     1    1    2 1    
     2    1   72 1    
     3    1   73 1    
     4    1   74 1    
     5    2    3 2    
     6    2    4 am   BACKBONE|DICT|INTERRES
     7    4    5 1    
     8    4   75 1    
     9    5    6 1    
    10    5   35 1    
    11    5   76 1    
    12    6    7 1    
    13    6   77 1    
    14    6   78 1    
    15    7    8 1    
    16    8    9 1    
    17    8   79 1    
    18    8   80 1    
    19    9   10 ar   
    20    9   14 ar   
    21   10   11 ar   
    22   10   81 1    
    23   11   12 ar   
    24   11   71 1    
    25   12   13 ar   
    26   12   82 1    
    27   13   14 ar   
    28   13   15 1    
    29   14   83 1    
    30   15   16 1    
    31   15   84 1    
    32   15   85 1    
    33   16   17 1    
    34   17   18 1    
    35   17   86 1    
    36   17   87 1    
    37   18   19 1    
    38   18   37 1    
    39   18   88 1    
    40   19   20 am   BACKBONE|DICT|INTERRES
    41   19   89 1    
    42   20   21 2    
    43   20   22 1    
    44   22   23 1    
    45   22   24 1    
    46   22   90 1    
    47   23   91 1    
    48   23   92 1    
    49   23   93 1    
    50   24   25 am   BACKBONE|DICT|INTERRES
    51   24   94 1    
    52   25   26 2    
    53   25   27 1    
    54   27   28 1    
    55   27   29 1    
    56   27   95 1    
    57   28   96 1    
    58   28   97 1    
    59   28   98 1    
    60   29   30 am   BACKBONE|DICT|INTERRES
    61   29   99 1    
    62   30   31 2    
    63   30   32 1    
    64   32   33 1    
    65   32   34 1    
    66   32  100 1    
    67   33  101 1    
    68   33  102 1    
    69   33  103 1    
    70   34   35 am   BACKBONE|DICT|INTERRES
    71   34  104 1    
    72   35   36 2    
    73   37   38 2    
    74   37   39 am   BACKBONE|DICT|INTERRES
    75   39   40 1    
    76   39  105 1    
    77   40   41 1    
    78   40   42 1    
    79   40  106 1    
    80   41  107 1    
    81   41  108 1    
    82   41  109 1    
    83   42   43 2    
    84   42   44 am   BACKBONE|DICT|INTERRES
    85   44   45 1    
    86   44  110 1    
    87   45   46 1    
    88   45   47 1    
    89   45  111 1    
    90   46  112 1    
    91   46  113 1    
    92   46  114 1    
    93   47   48 2    
    94   47   49 am   BACKBONE|DICT|INTERRES
    95   49   50 1    
    96   49  115 1    
    97   50   51 1    
    98   50   52 1    
    99   50  116 1    
   100   51  117 1    
   101   51  118 1    
   102   51  119 1    
   103   52   53 2    
   104   52   54 am   BACKBONE|DICT|INTERRES
   105   54   55 1    
   106   54  120 1    
   107   55   56 1    
   108   55   57 1    
   109   55  121 1    
   110   56  122 1    
   111   56  123 1    
   112   56  124 1    
   113   57   58 2    
   114   57   59 am   BACKBONE|DICT|INTERRES
   115   59   60 1    
   116   59  125 1    
   117   60   61 1    
   118   60   62 1    
   119   60  126 1    
   120   61  127 1    
   121   61  128 1    
   122   61  129 1    
   123   62   63 2    
   124   62   64 am   BACKBONE|DICT|INTERRES
   125   64   65 1    
   126   64  130 1    
   127   65   66 1    
   128   65   69 1    
   129   65  131 1    
   130   66   67 am   BACKBONE|DICT|INTERRES
   131   66   68 2    
   132   67  132 1    
   133   67  133 1    
   134   69   70 1    
   135   69  134 1    
   136   69  135 1    
   137   70   71 1    
   138   71  136 1    
   139   71  137 1    
@<TRIPOS>SUBSTRUCTURE
     1 UNK         1 GROUP             0       ****    0 ROOT    
