@<TRIPOS>MOLECULE
3R136
137   139    1
SMALL
USER_CHARGES


@<TRIPOS>ATOM
      1 CA         25.1039   20.1188    3.1965 C.3       0 UNK        -0.1979 
      2 C          26.2808   20.7253    2.4472 C.2       0 UNK         0.4864 
      3 O          26.9298   20.0328    1.6602 O.2       0 UNK        -0.5359 
      4 N          26.5634   22.0136    2.6806 N.am      1 UNK        -0.4318 
      5 CA         27.6472   22.7723    2.0487 C.3       1 UNK         0.0824 
      6 C6         28.0522   24.0083    2.8936 C.3       12 UNK        -0.0944 
      7 S7         28.9414   23.5423    4.4168 S.3       12 UNK        -0.2672 
      8 C8         30.6531   23.3233    3.8163 C.3       12 UNK         0.0333 
      9 C9         31.2868   24.6249    3.3405 C.ar      12 UNK        -0.0807 
     10 C10        31.8578   25.5085    4.2615 C.ar      12 UNK        -0.0894 
     11 C11        32.4422   26.7039    3.8308 C.ar      12 UNK        -0.0804 
     12 C12        32.4455   27.0172    2.4678 C.ar      12 UNK        -0.0824 
     13 C13        31.8794   26.1417    1.5369 C.ar      12 UNK        -0.0762 
     14 C14        31.3166   24.9401    1.9778 C.ar      12 UNK        -0.0782 
     15 C15        31.8929   26.4899    0.0545 C.3       12 UNK         0.0230 
     16 S16        30.6387   27.7418   -0.3725 S.3       12 UNK        -0.2608 
     17 C17        29.0896   26.7831   -0.2422 C.3       12 UNK        -0.0989 
     18 CA         27.8753   27.6308    0.2261 C.3       5 UNK         0.0716 
     19 N          26.6213   27.0263   -0.2254 N.am      5 UNK        -0.4135 
     20 C          25.4890   27.6922   -0.4823 C.2       4 UNK         0.5031 
     21 O          25.4126   28.9225   -0.5314 O.2       4 UNK        -0.5229 
     22 CA         24.2331   26.8255   -0.7083 C.3       4 UNK         0.0329 
     23 CB         22.9768   27.6569   -1.0474 C.3       4 UNK        -0.2001 
     24 N          24.4351   25.7630   -1.7009 N.am      4 UNK        -0.4303 
     25 C          24.7709   25.9036   -2.9912 C.2       3 UNK         0.5044 
     26 O          24.9820   26.9880   -3.5373 O.2       3 UNK        -0.5152 
     27 CA         24.9048   24.5969   -3.7984 C.3       3 UNK         0.0319 
     28 CB         25.1641   24.8455   -5.2965 C.3       3 UNK        -0.2001 
     29 N          25.9785   23.7562   -3.2675 N.am      3 UNK        -0.4354 
     30 C          25.8871   22.9593   -2.1951 C.2       2 UNK         0.4964 
     31 O          24.8414   22.7975   -1.5611 O.2       2 UNK        -0.5047 
     32 CA         27.1729   22.2292   -1.7513 C.3       2 UNK         0.0288 
     33 CB         28.4673   22.8257   -2.3539 C.3       2 UNK        -0.2113 
     34 N          27.3099   22.1388   -0.2926 N.am      2 UNK        -0.4145 
     35 C          27.2953   23.1456    0.5928 C.2       1 UNK         0.5006 
     36 O          27.0397   24.3156    0.3009 O.2       1 UNK        -0.5103 
     37 C          27.8299   27.8629    1.7579 C.2       5 UNK         0.5055 
     38 O          26.7772   27.7054    2.3829 O.2       5 UNK        -0.5220 
     39 N          28.9756   28.2542    2.3327 N.am      6 UNK        -0.4450 
     40 CA         29.1879   28.6120    3.7433 C.3       6 UNK         0.0367 
     41 CB         28.8633   27.4322    4.6833 C.3       6 UNK        -0.1929 
     42 C          28.4669   29.9092    4.1606 C.2       6 UNK         0.5070 
     43 O          28.1422   30.0803    5.3366 O.2       6 UNK        -0.5237 
     44 N          28.2557   30.8211    3.1992 N.am      7 UNK        -0.4739 
     45 CA         27.6943   32.1597    3.4241 C.3       7 UNK         0.0276 
     46 CB         27.2895   32.7683    2.0718 C.3       7 UNK        -0.1927 
     47 C          28.6590   33.0990    4.1747 C.2       7 UNK         0.5013 
     48 O          28.2110   34.0642    4.7949 O.2       7 UNK        -0.5193 
     49 N          29.9564   32.7865    4.1137 N.am      8 UNK        -0.4253 
     50 CA         31.0439   33.3962    4.8642 C.3       8 UNK         0.0242 
     51 CB         31.6529   34.5515    4.0504 C.3       8 UNK        -0.2000 
     52 C          32.0778   32.2957    5.1262 C.2       8 UNK         0.4948 
     53 O          32.0817   31.2792    4.4226 O.2       8 UNK        -0.5275 
     54 N          32.9706   32.5225    6.0970 N.am      9 UNK        -0.4246 
     55 CA         34.0359   31.5984    6.5093 C.3       9 UNK         0.0261 
     56 CB         34.4957   31.9704    7.9316 C.3       9 UNK        -0.1959 
     57 C          35.2141   31.5185    5.5119 C.2       9 UNK         0.5033 
     58 O          36.3737   31.4792    5.9277 O.2       9 UNK        -0.5390 
     59 N          34.9041   31.4654    4.2094 N.am      10 UNK        -0.4215 
     60 CA         35.8563   31.3573    3.0973 C.3       10 UNK         0.0240 
     61 CB         35.0943   31.5136    1.7713 C.3       10 UNK        -0.1982 
     62 C          36.6630   30.0458    3.1046 C.2       10 UNK         0.4970 
     63 O          37.7651   30.0058    2.5573 O.2       10 UNK        -0.4916 
     64 N          36.1012   29.0124    3.7400 N.am      11 UNK        -0.4279 
     65 CA         36.7419   27.7283    4.0348 C.3       11 UNK         0.1003 
     66 C          37.8181   27.7779    5.1616 C.2       11 UNK         0.5709 
     67 N          37.9778   28.8745    5.8961 N.am      11 UNK        -0.7358 
     68 O          38.5369   26.8016    5.3618 O.2       11 UNK        -0.4999 
     69 C69        35.6744   26.6285    4.2762 C.3       12 UNK        -0.0954 
     70 S70        34.5316   26.9783    5.6648 S.3       12 UNK        -0.2268 
     71 C71        33.0574   27.6661    4.8373 C.3       12 UNK         0.0203 
     72 H72        24.3535   19.7634    2.4910 H         1 UNK         0.0888 
     73 H73        25.4374   19.2720    3.7956 H         1 UNK         0.0888 
     74 H74        24.6295   20.8393    3.8626 H         1 UNK         0.0888 
     75 H75        25.9915   22.5350    3.3296 H         1 UNK         0.3017 
     76 H76        28.5221   22.1218    1.9845 H         1 UNK         0.0873 
     77 H77        28.6779   24.6959    2.3282 H         1 UNK         0.0745 
     78 H78        27.1703   24.5898    3.1691 H         1 UNK         0.0745 
     79 H79        30.6682   22.5775    3.0206 H         1 UNK         0.0705 
     80 H80        31.2531   22.9064    4.6265 H         1 UNK         0.0705 
     81 H81        31.8446   25.2684    5.3160 H         1 UNK         0.1334 
     82 H82        32.8887   27.9432    2.1272 H         1 UNK         0.1417 
     83 H83        30.8893   24.2533    1.2602 H         1 UNK         0.1562 
     84 H84        31.7392   25.5994   -0.5574 H         1 UNK         0.0748 
     85 H85        32.8777   26.8749   -0.2144 H         1 UNK         0.0748 
     86 H86        29.2266   25.9137    0.3992 H         1 UNK         0.0940 
     87 H87        28.8962   26.3792   -1.2376 H         1 UNK         0.0940 
     88 H88        27.9541   28.6160   -0.2386 H         1 UNK         0.0703 
     89 H89        26.5874   26.0111   -0.1456 H         1 UNK         0.3081 
     90 H90        24.0432   26.3215    0.2408 H         1 UNK         0.0719 
     91 H91        22.7608   28.3768   -0.2570 H         1 UNK         0.0809 
     92 H92        23.0999   28.2197   -1.9734 H         1 UNK         0.0809 
     93 H93        22.0975   27.0219   -1.1549 H         1 UNK         0.0809 
     94 H94        24.3464   24.8119   -1.3568 H         1 UNK         0.2990 
     95 H95        23.9561   24.0623   -3.7121 H         1 UNK         0.0690 
     96 H96        25.2012   23.9089   -5.8532 H         1 UNK         0.0788 
     97 H97        26.1043   25.3728   -5.4636 H         1 UNK         0.0788 
     98 H98        24.3686   25.4494   -5.7353 H         1 UNK         0.0788 
     99 H99        26.8819   23.8553   -3.7079 H         1 UNK         0.2993 
    100 H100       27.0755   21.2044   -2.1128 H         1 UNK         0.0949 
    101 H101       28.4813   22.7423   -3.4413 H         1 UNK         0.0767 
    102 H102       28.5900   23.8783   -2.0944 H         1 UNK         0.0767 
    103 H103       29.3477   22.2950   -1.9907 H         1 UNK         0.0767 
    104 H104       27.4081   21.2024    0.0891 H         1 UNK         0.3013 
    105 H105       29.7913   28.3189    1.7350 H         1 UNK         0.3121 
    106 H106       30.2546   28.8201    3.8391 H         1 UNK         0.0774 
    107 H107       27.7893   27.2743    4.7845 H         1 UNK         0.0815 
    108 H108       29.2987   26.5053    4.3181 H         1 UNK         0.0815 
    109 H109       29.2613   27.6086    5.6829 H         1 UNK         0.0815 
    110 H110       28.5395   30.5972    2.2566 H         1 UNK         0.2987 
    111 H111       26.7969   32.0553    4.0382 H         1 UNK         0.0949 
    112 H112       26.5568   32.1447    1.5588 H         1 UNK         0.0806 
    113 H113       26.8372   33.7518    2.2072 H         1 UNK         0.0806 
    114 H114       28.1481   32.8933    1.4107 H         1 UNK         0.0806 
    115 H115       30.2280   31.9390    3.6305 H         1 UNK         0.3010 
    116 H116       30.6711   33.7645    5.8226 H         1 UNK         0.0829 
    117 H117       30.9100   35.3214    3.8408 H         1 UNK         0.0813 
    118 H118       32.4689   35.0299    4.5934 H         1 UNK         0.0813 
    119 H119       32.0528   34.2053    3.0963 H         1 UNK         0.0813 
    120 H120       32.9276   33.4007    6.5949 H         1 UNK         0.3038 
    121 H121       33.6086   30.5942    6.5581 H         1 UNK         0.0769 
    122 H122       35.2270   31.2539    8.3085 H         1 UNK         0.0811 
    123 H123       33.6607   31.9713    8.6326 H         1 UNK         0.0811 
    124 H124       34.9608   32.9565    7.9595 H         1 UNK         0.0811 
    125 H125       33.9135   31.4573    3.9775 H         1 UNK         0.3204 
    126 H126       36.5691   32.1796    3.1878 H         1 UNK         0.0748 
    127 H127       35.7753   31.4637    0.9203 H         1 UNK         0.0771 
    128 H128       34.3479   30.7289    1.6392 H         1 UNK         0.0771 
    129 H129       34.5828   32.4751    1.7187 H         1 UNK         0.0771 
    130 H130       35.2031   29.1535    4.1733 H         1 UNK         0.2980 
    131 H131       37.2895   27.4380    3.1362 H         1 UNK         0.0545 
    132 H132       38.6853   28.8813    6.6131 H         1 UNK         0.3459 
    133 H133       37.4014   29.6958    5.7552 H         1 UNK         0.3459 
    134 H134       35.1027   26.4737    3.3615 H         1 UNK         0.0616 
    135 H135       36.1566   25.6694    4.4722 H         1 UNK         0.0616 
    136 H136       32.3117   27.9066    5.5964 H         1 UNK         0.0634 
    137 H137       33.3161   28.6126    4.3615 H         1 UNK         0.0634 
@<TRIPOS>BOND
     1    1    2 1    
     2    1   72 1    
     3    1   73 1    
     4    1   74 1    
     5    2    3 2    
     6    2    4 am   BACKBONE|DICT|INTERRES
     7    4    5 1    
     8    4   75 1    
     9    5    6 1    
    10    5   35 1    
    11    5   76 1    
    12    6    7 1    
    13    6   77 1    
    14    6   78 1    
    15    7    8 1    
    16    8    9 1    
    17    8   79 1    
    18    8   80 1    
    19    9   10 ar   
    20    9   14 ar   
    21   10   11 ar   
    22   10   81 1    
    23   11   12 ar   
    24   11   71 1    
    25   12   13 ar   
    26   12   82 1    
    27   13   14 ar   
    28   13   15 1    
    29   14   83 1    
    30   15   16 1    
    31   15   84 1    
    32   15   85 1    
    33   16   17 1    
    34   17   18 1    
    35   17   86 1    
    36   17   87 1    
    37   18   19 1    
    38   18   37 1    
    39   18   88 1    
    40   19   20 am   BACKBONE|DICT|INTERRES
    41   19   89 1    
    42   20   21 2    
    43   20   22 1    
    44   22   23 1    
    45   22   24 1    
    46   22   90 1    
    47   23   91 1    
    48   23   92 1    
    49   23   93 1    
    50   24   25 am   BACKBONE|DICT|INTERRES
    51   24   94 1    
    52   25   26 2    
    53   25   27 1    
    54   27   28 1    
    55   27   29 1    
    56   27   95 1    
    57   28   96 1    
    58   28   97 1    
    59   28   98 1    
    60   29   30 am   BACKBONE|DICT|INTERRES
    61   29   99 1    
    62   30   31 2    
    63   30   32 1    
    64   32   33 1    
    65   32   34 1    
    66   32  100 1    
    67   33  101 1    
    68   33  102 1    
    69   33  103 1    
    70   34   35 am   BACKBONE|DICT|INTERRES
    71   34  104 1    
    72   35   36 2    
    73   37   38 2    
    74   37   39 am   BACKBONE|DICT|INTERRES
    75   39   40 1    
    76   39  105 1    
    77   40   41 1    
    78   40   42 1    
    79   40  106 1    
    80   41  107 1    
    81   41  108 1    
    82   41  109 1    
    83   42   43 2    
    84   42   44 am   BACKBONE|DICT|INTERRES
    85   44   45 1    
    86   44  110 1    
    87   45   46 1    
    88   45   47 1    
    89   45  111 1    
    90   46  112 1    
    91   46  113 1    
    92   46  114 1    
    93   47   48 2    
    94   47   49 am   BACKBONE|DICT|INTERRES
    95   49   50 1    
    96   49  115 1    
    97   50   51 1    
    98   50   52 1    
    99   50  116 1    
   100   51  117 1    
   101   51  118 1    
   102   51  119 1    
   103   52   53 2    
   104   52   54 am   BACKBONE|DICT|INTERRES
   105   54   55 1    
   106   54  120 1    
   107   55   56 1    
   108   55   57 1    
   109   55  121 1    
   110   56  122 1    
   111   56  123 1    
   112   56  124 1    
   113   57   58 2    
   114   57   59 am   BACKBONE|DICT|INTERRES
   115   59   60 1    
   116   59  125 1    
   117   60   61 1    
   118   60   62 1    
   119   60  126 1    
   120   61  127 1    
   121   61  128 1    
   122   61  129 1    
   123   62   63 2    
   124   62   64 am   BACKBONE|DICT|INTERRES
   125   64   65 1    
   126   64  130 1    
   127   65   66 1    
   128   65   69 1    
   129   65  131 1    
   130   66   67 am   BACKBONE|DICT|INTERRES
   131   66   68 2    
   132   67  132 1    
   133   67  133 1    
   134   69   70 1    
   135   69  134 1    
   136   69  135 1    
   137   70   71 1    
   138   71  136 1    
   139   71  137 1    
@<TRIPOS>SUBSTRUCTURE
     1 UNK         1 GROUP             0       ****    0 ROOT    
