@<TRIPOS>MOLECULE
3R136
137   139    1
SMALL
USER_CHARGES


@<TRIPOS>ATOM
      1 CA         29.8011   19.6980   -0.5621 C.3       0 UNK        -0.1979 
      2 C          29.2082   21.0862   -0.3735 C.2       0 UNK         0.4864 
      3 O          27.9893   21.2109   -0.2546 O.2       0 UNK        -0.5359 
      4 N          30.0634   22.1219   -0.3792 N.am      1 UNK        -0.4318 
      5 CA         29.7819   23.5479   -0.1245 C.3       1 UNK         0.0824 
      6 C6         29.6678   23.8770    1.3927 C.3       12 UNK        -0.0944 
      7 S7         28.1102   23.3774    2.2197 S.3       12 UNK        -0.2672 
      8 C8         28.6997   22.9222    3.8820 C.3       12 UNK         0.0333 
      9 C9         29.2791   24.1255    4.6104 C.ar      12 UNK        -0.0807 
     10 C10        30.6576   24.2391    4.8063 C.ar      12 UNK        -0.0894 
     11 C11        31.1948   25.3700    5.4276 C.ar      12 UNK        -0.0804 
     12 C12        30.3444   26.4025    5.8359 C.ar      12 UNK        -0.0824 
     13 C13        28.9625   26.3007    5.6446 C.ar      12 UNK        -0.0762 
     14 C14        28.4349   25.1423    5.0630 C.ar      12 UNK        -0.0782 
     15 C15        28.0466   27.4470    6.0601 C.3       12 UNK         0.0230 
     16 S16        26.8521   27.9137    4.7600 S.3       12 UNK        -0.2608 
     17 C17        27.9453   28.4385    3.3935 C.3       12 UNK        -0.0989 
     18 CA         28.1549   27.3516    2.3038 C.3       5 UNK         0.0716 
     19 N          26.9117   26.7535    1.7867 N.am      5 UNK        -0.4135 
     20 C          25.8889   27.3728    1.1834 C.2       4 UNK         0.5031 
     21 O          25.8866   28.5793    0.9305 O.2       4 UNK        -0.5229 
     22 CA         24.6866   26.5103    0.7672 C.3       4 UNK         0.0329 
     23 CB         23.8555   27.1624   -0.3592 C.3       4 UNK        -0.2001 
     24 N          25.0837   25.1563    0.3693 N.am      4 UNK        -0.4303 
     25 C          24.2656   24.0925    0.4122 C.2       3 UNK         0.5044 
     26 O          23.1437   24.1299    0.9220 O.2       3 UNK        -0.5152 
     27 CA         24.7545   22.7667   -0.2159 C.3       3 UNK         0.0319 
     28 CB         23.6016   21.9413   -0.8256 C.3       3 UNK        -0.2001 
     29 N          25.8429   22.9216   -1.1861 N.am      3 UNK        -0.4354 
     30 C          25.8533   23.6510   -2.3159 C.2       2 UNK         0.4964 
     31 O          24.8561   24.2060   -2.7796 O.2       2 UNK        -0.5047 
     32 CA         27.2172   23.8229   -3.0279 C.3       2 UNK         0.0288 
     33 CB         27.3519   25.2052   -3.7037 C.3       2 UNK        -0.2113 
     34 N          28.3742   23.5643   -2.1554 N.am      2 UNK        -0.4145 
     35 C          28.6563   24.1703   -0.9894 C.2       1 UNK         0.5006 
     36 O          28.0294   25.1467   -0.5731 O.2       1 UNK        -0.5103 
     37 C          29.1207   27.8640    1.2119 C.2       5 UNK         0.5055 
     38 O          30.3341   27.7593    1.3971 O.2       5 UNK        -0.5220 
     39 N          28.5848   28.4239    0.1181 N.am      6 UNK        -0.4450 
     40 CA         29.2387   28.9985   -1.0659 C.3       6 UNK         0.0367 
     41 CB         30.1123   27.9593   -1.7957 C.3       6 UNK        -0.1929 
     42 C          30.0198   30.2948   -0.7851 C.2       6 UNK         0.5070 
     43 O          29.8446   31.2740   -1.5106 O.2       6 UNK        -0.5237 
     44 N          30.8443   30.2907    0.2644 N.am      7 UNK        -0.4739 
     45 CA         31.6341   31.4182    0.7434 C.3       7 UNK         0.0276 
     46 CB         32.9548   31.5131   -0.0465 C.3       7 UNK        -0.1927 
     47 C          31.8501   31.2281    2.2475 C.2       7 UNK         0.5013 
     48 O          32.9633   30.9160    2.6717 O.2       7 UNK        -0.5193 
     49 N          30.7740   31.3923    3.0319 N.am      8 UNK        -0.4253 
     50 CA         30.7309   31.1640    4.4849 C.3       8 UNK         0.0242 
     51 CB         29.3425   31.5455    5.0261 C.3       8 UNK        -0.2000 
     52 C          31.8211   31.8995    5.2852 C.2       8 UNK         0.4948 
     53 O          32.3626   31.3284    6.2312 O.2       8 UNK        -0.5275 
     54 N          32.1487   33.1301    4.8665 N.am      9 UNK        -0.4246 
     55 CA         33.2090   33.9570    5.4491 C.3       9 UNK         0.0261 
     56 CB         33.1021   35.3843    4.8875 C.3       9 UNK        -0.1959 
     57 C          34.6281   33.3987    5.2294 C.2       9 UNK         0.5033 
     58 O          35.5081   33.6759    6.0459 O.2       9 UNK        -0.5390 
     59 N          34.8303   32.6352    4.1466 N.am      10 UNK        -0.4215 
     60 CA         36.0839   31.9428    3.8472 C.3       10 UNK         0.0240 
     61 CB         36.2925   31.8829    2.3244 C.3       10 UNK        -0.1982 
     62 C          36.0886   30.5322    4.4537 C.2       10 UNK         0.4970 
     63 O          37.1141   30.1144    4.9929 O.2       10 UNK        -0.4916 
     64 N          34.9526   29.8283    4.3511 N.am      11 UNK        -0.4279 
     65 CA         34.7488   28.4785    4.8912 C.3       11 UNK         0.1003 
     66 C          34.8078   28.4077    6.4432 C.2       11 UNK         0.5709 
     67 N          34.2304   29.3628    7.1617 N.am      11 UNK        -0.7358 
     68 O          35.3949   27.4838    7.0009 O.2       11 UNK        -0.4999 
     69 C69        33.4509   27.8363    4.3284 C.3       12 UNK        -0.0954 
     70 S70        33.5848   26.0238    4.1832 S.3       12 UNK        -0.2268 
     71 C71        32.6940   25.4593    5.6655 C.3       12 UNK         0.0203 
     72 H72        30.8847   19.7268   -0.6749 H         1 UNK         0.0888 
     73 H73        29.5667   19.0728    0.2990 H         1 UNK         0.0888 
     74 H74        29.3793   19.2272   -1.4497 H         1 UNK         0.0888 
     75 H75        31.0429   21.9170   -0.5228 H         1 UNK         0.3017 
     76 H76        30.6804   24.0608   -0.4715 H         1 UNK         0.0873 
     77 H77        30.5062   23.4166    1.9169 H         1 UNK         0.0745 
     78 H78        29.7995   24.9478    1.5425 H         1 UNK         0.0745 
     79 H79        29.4348   22.1201    3.7988 H         1 UNK         0.0705 
     80 H80        27.8653   22.5172    4.4562 H         1 UNK         0.0705 
     81 H81        31.3173   23.4517    4.4677 H         1 UNK         0.1334 
     82 H82        30.7599   27.2845    6.3038 H         1 UNK         0.1417 
     83 H83        27.3676   25.0551    4.9109 H         1 UNK         0.1562 
     84 H84        28.6263   28.3299    6.3343 H         1 UNK         0.0748 
     85 H85        27.4957   27.1491    6.9530 H         1 UNK         0.0748 
     86 H86        28.9092   28.7340    3.8113 H         1 UNK         0.0940 
     87 H87        27.5166   29.3410    2.9543 H         1 UNK         0.0940 
     88 H88        28.6805   26.5250    2.7771 H         1 UNK         0.0703 
     89 H89        26.8540   25.7503    1.8947 H         1 UNK         0.3081 
     90 H90        24.0583   26.4432    1.6578 H         1 UNK         0.0719 
     91 H91        24.4392   27.2650   -1.2749 H         1 UNK         0.0809 
     92 H92        22.9680   26.5749   -0.5944 H         1 UNK         0.0809 
     93 H93        23.5107   28.1571   -0.0741 H         1 UNK         0.0809 
     94 H94        26.0044   25.0591   -0.0506 H         1 UNK         0.2990 
     95 H95        25.1763   22.1877    0.6070 H         1 UNK         0.0690 
     96 H96        23.9650   21.0038   -1.2462 H         1 UNK         0.0788 
     97 H97        23.0880   22.4883   -1.6168 H         1 UNK         0.0788 
     98 H98        22.8571   21.6871   -0.0701 H         1 UNK         0.0788 
     99 H99        26.7111   22.4675   -0.9065 H         1 UNK         0.2993 
    100 H100       27.2452   23.0634   -3.8106 H         1 UNK         0.0949 
    101 H101       27.2451   26.0193   -2.9857 H         1 UNK         0.0767 
    102 H102       28.3192   25.3153   -4.1937 H         1 UNK         0.0767 
    103 H103       26.5860   25.3449   -4.4675 H         1 UNK         0.0767 
    104 H104       28.9334   22.7596   -2.4021 H         1 UNK         0.3013 
    105 H105       27.5719   28.5218    0.1377 H         1 UNK         0.3121 
    106 H106       28.4251   29.2668   -1.7418 H         1 UNK         0.0774 
    107 H107       30.5178   28.3738   -2.7194 H         1 UNK         0.0815 
    108 H108       30.9575   27.6341   -1.1889 H         1 UNK         0.0815 
    109 H109       29.5326   27.0761   -2.0636 H         1 UNK         0.0815 
    110 H110       30.9040   29.4303    0.8080 H         1 UNK         0.2987 
    111 H111       31.0760   32.3466    0.6030 H         1 UNK         0.0949 
    112 H112       33.5412   30.5971    0.0369 H         1 UNK         0.0806 
    113 H113       32.7720   31.6968   -1.1052 H         1 UNK         0.0806 
    114 H114       33.5724   32.3330    0.3222 H         1 UNK         0.0806 
    115 H115       29.9015   31.6471    2.5914 H         1 UNK         0.3010 
    116 H116       30.8809   30.0943    4.6440 H         1 UNK         0.0829 
    117 H117       29.2649   31.3194    6.0907 H         1 UNK         0.0813 
    118 H118       29.1411   32.6107    4.9054 H         1 UNK         0.0813 
    119 H119       28.5442   31.0006    4.5253 H         1 UNK         0.0813 
    120 H120       31.6449   33.5183    4.0823 H         1 UNK         0.3038 
    121 H121       33.0412   34.0009    6.5274 H         1 UNK         0.0769 
    122 H122       33.8620   36.0332    5.3255 H         1 UNK         0.0811 
    123 H123       32.1322   35.8286    5.1120 H         1 UNK         0.0811 
    124 H124       33.2408   35.4052    3.8058 H         1 UNK         0.0811 
    125 H125       34.0378   32.3984    3.5605 H         1 UNK         0.3204 
    126 H126       36.9212   32.4974    4.2766 H         1 UNK         0.0748 
    127 H127       37.2423   31.4046    2.0815 H         1 UNK         0.0771 
    128 H128       35.5066   31.3150    1.8256 H         1 UNK         0.0771 
    129 H129       36.3119   32.8817    1.8880 H         1 UNK         0.0771 
    130 H130       34.1696   30.2318    3.8428 H         1 UNK         0.2980 
    131 H131       35.5939   27.8933    4.5226 H         1 UNK         0.0545 
    132 H132       33.6915   30.1042    6.7207 H         1 UNK         0.3459 
    133 H133       34.2812   29.3174    8.1662 H         1 UNK         0.3459 
    134 H134       32.5732   28.1185    4.9114 H         1 UNK         0.0616 
    135 H135       33.2577   28.2022    3.3185 H         1 UNK         0.0616 
    136 H136       32.9126   26.1142    6.5096 H         1 UNK         0.0634 
    137 H137       33.0745   24.4754    5.9433 H         1 UNK         0.0634 
@<TRIPOS>BOND
     1    1    2 1    
     2    1   72 1    
     3    1   73 1    
     4    1   74 1    
     5    2    3 2    
     6    2    4 am   BACKBONE|DICT|INTERRES
     7    4    5 1    
     8    4   75 1    
     9    5    6 1    
    10    5   35 1    
    11    5   76 1    
    12    6    7 1    
    13    6   77 1    
    14    6   78 1    
    15    7    8 1    
    16    8    9 1    
    17    8   79 1    
    18    8   80 1    
    19    9   10 ar   
    20    9   14 ar   
    21   10   11 ar   
    22   10   81 1    
    23   11   12 ar   
    24   11   71 1    
    25   12   13 ar   
    26   12   82 1    
    27   13   14 ar   
    28   13   15 1    
    29   14   83 1    
    30   15   16 1    
    31   15   84 1    
    32   15   85 1    
    33   16   17 1    
    34   17   18 1    
    35   17   86 1    
    36   17   87 1    
    37   18   19 1    
    38   18   37 1    
    39   18   88 1    
    40   19   20 am   BACKBONE|DICT|INTERRES
    41   19   89 1    
    42   20   21 2    
    43   20   22 1    
    44   22   23 1    
    45   22   24 1    
    46   22   90 1    
    47   23   91 1    
    48   23   92 1    
    49   23   93 1    
    50   24   25 am   BACKBONE|DICT|INTERRES
    51   24   94 1    
    52   25   26 2    
    53   25   27 1    
    54   27   28 1    
    55   27   29 1    
    56   27   95 1    
    57   28   96 1    
    58   28   97 1    
    59   28   98 1    
    60   29   30 am   BACKBONE|DICT|INTERRES
    61   29   99 1    
    62   30   31 2    
    63   30   32 1    
    64   32   33 1    
    65   32   34 1    
    66   32  100 1    
    67   33  101 1    
    68   33  102 1    
    69   33  103 1    
    70   34   35 am   BACKBONE|DICT|INTERRES
    71   34  104 1    
    72   35   36 2    
    73   37   38 2    
    74   37   39 am   BACKBONE|DICT|INTERRES
    75   39   40 1    
    76   39  105 1    
    77   40   41 1    
    78   40   42 1    
    79   40  106 1    
    80   41  107 1    
    81   41  108 1    
    82   41  109 1    
    83   42   43 2    
    84   42   44 am   BACKBONE|DICT|INTERRES
    85   44   45 1    
    86   44  110 1    
    87   45   46 1    
    88   45   47 1    
    89   45  111 1    
    90   46  112 1    
    91   46  113 1    
    92   46  114 1    
    93   47   48 2    
    94   47   49 am   BACKBONE|DICT|INTERRES
    95   49   50 1    
    96   49  115 1    
    97   50   51 1    
    98   50   52 1    
    99   50  116 1    
   100   51  117 1    
   101   51  118 1    
   102   51  119 1    
   103   52   53 2    
   104   52   54 am   BACKBONE|DICT|INTERRES
   105   54   55 1    
   106   54  120 1    
   107   55   56 1    
   108   55   57 1    
   109   55  121 1    
   110   56  122 1    
   111   56  123 1    
   112   56  124 1    
   113   57   58 2    
   114   57   59 am   BACKBONE|DICT|INTERRES
   115   59   60 1    
   116   59  125 1    
   117   60   61 1    
   118   60   62 1    
   119   60  126 1    
   120   61  127 1    
   121   61  128 1    
   122   61  129 1    
   123   62   63 2    
   124   62   64 am   BACKBONE|DICT|INTERRES
   125   64   65 1    
   126   64  130 1    
   127   65   66 1    
   128   65   69 1    
   129   65  131 1    
   130   66   67 am   BACKBONE|DICT|INTERRES
   131   66   68 2    
   132   67  132 1    
   133   67  133 1    
   134   69   70 1    
   135   69  134 1    
   136   69  135 1    
   137   70   71 1    
   138   71  136 1    
   139   71  137 1    
@<TRIPOS>SUBSTRUCTURE
     1 UNK         1 GROUP             0       ****    0 ROOT    
