@<TRIPOS>MOLECULE
3R136
137   139    1
SMALL
USER_CHARGES


@<TRIPOS>ATOM
      1 CA         34.6532   25.5073   -1.6171 C.3       0 UNK        -0.1979 
      2 C          33.3603   26.3096   -1.5950 C.2       0 UNK         0.4864 
      3 O          33.1874   27.2098   -2.4177 O.2       0 UNK        -0.5359 
      4 N          32.4572   25.9860   -0.6599 N.am      1 UNK        -0.4318 
      5 CA         31.1394   26.6082   -0.5071 C.3       1 UNK         0.0824 
      6 C6         30.4666   26.2030    0.8338 C.3       12 UNK        -0.0944 
      7 S7         30.1983   24.4053    1.0369 S.3       12 UNK        -0.2672 
      8 C8         31.3446   23.9918    2.3938 C.3       12 UNK         0.0333 
      9 C9         30.8152   24.4548    3.7436 C.ar      12 UNK        -0.0807 
     10 C10        31.5109   25.4042    4.4993 C.ar      12 UNK        -0.0894 
     11 C11        31.0098   25.8342    5.7334 C.ar      12 UNK        -0.0804 
     12 C12        29.8042   25.3078    6.2076 C.ar      12 UNK        -0.0824 
     13 C13        29.1046   24.3534    5.4626 C.ar      12 UNK        -0.0762 
     14 C14        29.6218   23.9230    4.2390 C.ar      12 UNK        -0.0782 
     15 C15        27.7792   23.7971    5.9618 C.3       12 UNK         0.0230 
     16 S16        26.3760   24.4142    4.9751 S.3       12 UNK        -0.2608 
     17 C17        26.4454   26.2033    5.3259 C.3       12 UNK        -0.0989 
     18 CA         27.0482   27.0264    4.1494 C.3       5 UNK         0.0716 
     19 N          26.3016   26.8933    2.8854 N.am      5 UNK        -0.4135 
     20 C          25.0332   27.2746    2.6682 C.2       4 UNK         0.5031 
     21 O          24.3147   27.7786    3.5325 O.2       4 UNK        -0.5229 
     22 CA         24.4626   27.1220    1.2442 C.3       4 UNK         0.0329 
     23 CB         24.1731   28.5054    0.6360 C.3       4 UNK        -0.2001 
     24 N          25.2991   26.3712    0.3023 N.am      4 UNK        -0.4303 
     25 C          25.4877   25.0469    0.3052 C.2       3 UNK         0.5044 
     26 O          25.0601   24.3085    1.1921 O.2       3 UNK        -0.5152 
     27 CA         26.2679   24.4189   -0.8703 C.3       3 UNK         0.0319 
     28 CB         25.2957   23.7548   -1.8646 C.3       3 UNK        -0.2001 
     29 N          27.2176   25.2903   -1.5849 N.am      3 UNK        -0.4354 
     30 C          26.9939   26.4021   -2.3043 C.2       2 UNK         0.4964 
     31 O          25.8897   26.9374   -2.4070 O.2       2 UNK        -0.5047 
     32 CA         28.2245   27.0390   -2.9810 C.3       2 UNK         0.0288 
     33 CB         27.9143   28.3865   -3.6580 C.3       2 UNK        -0.2113 
     34 N          29.3040   27.2291   -2.0107 N.am      2 UNK        -0.4145 
     35 C          30.2184   26.3015   -1.7059 C.2       1 UNK         0.5006 
     36 O          30.2899   25.2105   -2.2795 O.2       1 UNK        -0.5103 
     37 C          27.2931   28.5061    4.5371 C.2       5 UNK         0.5055 
     38 O          27.4103   28.8220    5.7227 O.2       5 UNK        -0.5220 
     39 N          27.3783   29.3889    3.5334 N.am      6 UNK        -0.4450 
     40 CA         27.6264   30.8209    3.6892 C.3       6 UNK         0.0367 
     41 CB         26.3385   31.5652    4.0904 C.3       6 UNK        -0.1929 
     42 C          28.2222   31.3749    2.3936 C.2       6 UNK         0.5070 
     43 O          29.3174   31.9366    2.4192 O.2       6 UNK        -0.5237 
     44 N          27.5107   31.1657    1.2759 N.am      7 UNK        -0.4739 
     45 CA         27.9264   31.5493   -0.0756 C.3       7 UNK         0.0276 
     46 CB         26.8055   31.1972   -1.0668 C.3       7 UNK        -0.1927 
     47 C          29.2514   30.8760   -0.4723 C.2       7 UNK         0.5013 
     48 O          29.2853   29.6518   -0.6205 O.2       7 UNK        -0.5193 
     49 N          30.3142   31.6885   -0.5753 N.am      8 UNK        -0.4253 
     50 CA         31.7094   31.3139   -0.8529 C.3       8 UNK         0.0242 
     51 CB         31.8356   30.7316   -2.2780 C.3       8 UNK        -0.2000 
     52 C          32.3468   30.3849    0.2045 C.2       8 UNK         0.4948 
     53 O          33.3744   29.7675   -0.0789 O.2       8 UNK        -0.5275 
     54 N          31.7321   30.2700    1.3889 N.am      9 UNK        -0.4246 
     55 CA         32.0997   29.2836    2.3994 C.3       9 UNK         0.0261 
     56 CB         30.8705   28.9803    3.2692 C.3       9 UNK        -0.1959 
     57 C          33.2745   29.7391    3.2723 C.2       9 UNK         0.5033 
     58 O          33.3524   30.9095    3.6527 O.2       9 UNK        -0.5390 
     59 N          34.1181   28.7689    3.6291 N.am      10 UNK        -0.4215 
     60 CA         35.1481   28.8431    4.6549 C.3       10 UNK         0.0240 
     61 CB         36.4793   29.3192    4.0488 C.3       10 UNK        -0.1982 
     62 C          35.2587   27.4278    5.2283 C.2       10 UNK         0.4970 
     63 O          35.2235   26.4671    4.4545 O.2       10 UNK        -0.4916 
     64 N          35.3470   27.3177    6.5545 N.am      11 UNK        -0.4279 
     65 CA         35.3668   26.0506    7.2944 C.3       11 UNK         0.1003 
     66 C          35.9204   26.2497    8.7310 C.2       11 UNK         0.5709 
     67 N          36.1912   25.1687    9.4499 N.am      11 UNK        -0.7358 
     68 O          36.1124   27.3716    9.2000 O.2       11 UNK        -0.4999 
     69 C69        33.9998   25.3006    7.2496 C.3       12 UNK        -0.0954 
     70 S70        32.6013   26.2134    7.9948 S.3       12 UNK        -0.2268 
     71 C71        31.7439   26.8974    6.5398 C.3       12 UNK         0.0203 
     72 H72        34.7681   25.0078   -2.5787 H         1 UNK         0.0888 
     73 H73        35.5066   26.1692   -1.4720 H         1 UNK         0.0888 
     74 H74        34.6765   24.7481   -0.8355 H         1 UNK         0.0888 
     75 H75        32.6307   25.1963   -0.0564 H         1 UNK         0.3017 
     76 H76        31.2984   27.6882   -0.4895 H         1 UNK         0.0873 
     77 H77        31.0705   26.5543    1.6680 H         1 UNK         0.0745 
     78 H78        29.5045   26.7071    0.9437 H         1 UNK         0.0745 
     79 H79        31.4782   22.9095    2.4216 H         1 UNK         0.0705 
     80 H80        32.3280   24.4168    2.1875 H         1 UNK         0.0705 
     81 H81        32.4401   25.8122    4.1261 H         1 UNK         0.1334 
     82 H82        29.4097   25.6492    7.1550 H         1 UNK         0.1417 
     83 H83        29.0783   23.1913    3.6562 H         1 UNK         0.1562 
     84 H84        27.6212   24.0440    7.0129 H         1 UNK         0.0748 
     85 H85        27.8006   22.7079    5.9039 H         1 UNK         0.0748 
     86 H86        27.0224   26.3510    6.2403 H         1 UNK         0.0940 
     87 H87        25.4374   26.5470    5.5619 H         1 UNK         0.0940 
     88 H88        28.0418   26.6237    3.9466 H         1 UNK         0.0703 
     89 H89        26.7964   26.4563    2.1222 H         1 UNK         0.3081 
     90 H90        23.5136   26.5905    1.3415 H         1 UNK         0.0719 
     91 H91        23.4988   29.0826    1.2705 H         1 UNK         0.0809 
     92 H92        25.0850   29.0885    0.5135 H         1 UNK         0.0809 
     93 H93        23.6973   28.4182   -0.3412 H         1 UNK         0.0809 
     94 H94        25.6131   26.8670   -0.5269 H         1 UNK         0.2990 
     95 H95        26.8793   23.6281   -0.4324 H         1 UNK         0.0690 
     96 H96        25.8330   23.2172   -2.6460 H         1 UNK         0.0788 
     97 H97        24.6453   24.4858   -2.3462 H         1 UNK         0.0788 
     98 H98        24.6526   23.0325   -1.3597 H         1 UNK         0.0788 
     99 H99        28.1782   24.9680   -1.5591 H         1 UNK         0.2993 
    100 H100       28.5490   26.3494   -3.7634 H         1 UNK         0.0949 
    101 H101       27.5682   29.1272   -2.9395 H         1 UNK         0.0767 
    102 H102       28.7966   28.7914   -4.1540 H         1 UNK         0.0767 
    103 H103       27.1378   28.2760   -4.4160 H         1 UNK         0.0767 
    104 H104       29.2840   28.1013   -1.4792 H         1 UNK         0.3013 
    105 H105       27.3271   29.0457    2.5852 H         1 UNK         0.3121 
    106 H106       28.3696   30.9672    4.4764 H         1 UNK         0.0774 
    107 H107       25.5294   31.3951    3.3795 H         1 UNK         0.0815 
    108 H108       25.9881   31.2462    5.0721 H         1 UNK         0.0815 
    109 H109       26.5095   32.6412    4.1438 H         1 UNK         0.0815 
    110 H110       26.6052   30.7290    1.3539 H         1 UNK         0.2987 
    111 H111       28.0601   32.6332   -0.0888 H         1 UNK         0.0949 
    112 H112       25.8841   31.7302   -0.8315 H         1 UNK         0.0806 
    113 H113       27.0851   31.4718   -2.0848 H         1 UNK         0.0806 
    114 H114       26.5844   30.1297   -1.0652 H         1 UNK         0.0806 
    115 H115       30.1701   32.6701   -0.3803 H         1 UNK         0.3010 
    116 H116       32.2849   32.2402   -0.8211 H         1 UNK         0.0829 
    117 H117       31.3493   29.7591   -2.3635 H         1 UNK         0.0813 
    118 H118       31.3932   31.3952   -3.0208 H         1 UNK         0.0813 
    119 H119       32.8814   30.5909   -2.5540 H         1 UNK         0.0813 
    120 H120       30.9379   30.8657    1.5969 H         1 UNK         0.3038 
    121 H121       32.3912   28.3663    1.8850 H         1 UNK         0.0769 
    122 H122       30.0233   28.6657    2.6609 H         1 UNK         0.0811 
    123 H123       30.5663   29.8511    3.8506 H         1 UNK         0.0811 
    124 H124       31.0757   28.1785    3.9757 H         1 UNK         0.0811 
    125 H125       33.9829   27.8302    3.2737 H         1 UNK         0.3204 
    126 H126       34.8326   29.5315    5.4423 H         1 UNK         0.0748 
    127 H127       36.8270   28.6485    3.2619 H         1 UNK         0.0771 
    128 H128       36.3834   30.3166    3.6192 H         1 UNK         0.0771 
    129 H129       37.2595   29.3660    4.8095 H         1 UNK         0.0771 
    130 H130       35.4075   28.1404    7.1401 H         1 UNK         0.2980 
    131 H131       36.1045   25.4188    6.7960 H         1 UNK         0.0545 
    132 H132       36.0405   24.2435    9.0792 H         1 UNK         0.3459 
    133 H133       36.5515   25.2810   10.3846 H         1 UNK         0.3459 
    134 H134       34.0804   24.3430    7.7657 H         1 UNK         0.0616 
    135 H135       33.7518   25.0406    6.2210 H         1 UNK         0.0616 
    136 H136       31.0238   27.6423    6.8816 H         1 UNK         0.0634 
    137 H137       32.4562   27.4363    5.9164 H         1 UNK         0.0634 
@<TRIPOS>BOND
     1    1    2 1    
     2    1   72 1    
     3    1   73 1    
     4    1   74 1    
     5    2    3 2    
     6    2    4 am   BACKBONE|DICT|INTERRES
     7    4    5 1    
     8    4   75 1    
     9    5    6 1    
    10    5   35 1    
    11    5   76 1    
    12    6    7 1    
    13    6   77 1    
    14    6   78 1    
    15    7    8 1    
    16    8    9 1    
    17    8   79 1    
    18    8   80 1    
    19    9   10 ar   
    20    9   14 ar   
    21   10   11 ar   
    22   10   81 1    
    23   11   12 ar   
    24   11   71 1    
    25   12   13 ar   
    26   12   82 1    
    27   13   14 ar   
    28   13   15 1    
    29   14   83 1    
    30   15   16 1    
    31   15   84 1    
    32   15   85 1    
    33   16   17 1    
    34   17   18 1    
    35   17   86 1    
    36   17   87 1    
    37   18   19 1    
    38   18   37 1    
    39   18   88 1    
    40   19   20 am   BACKBONE|DICT|INTERRES
    41   19   89 1    
    42   20   21 2    
    43   20   22 1    
    44   22   23 1    
    45   22   24 1    
    46   22   90 1    
    47   23   91 1    
    48   23   92 1    
    49   23   93 1    
    50   24   25 am   BACKBONE|DICT|INTERRES
    51   24   94 1    
    52   25   26 2    
    53   25   27 1    
    54   27   28 1    
    55   27   29 1    
    56   27   95 1    
    57   28   96 1    
    58   28   97 1    
    59   28   98 1    
    60   29   30 am   BACKBONE|DICT|INTERRES
    61   29   99 1    
    62   30   31 2    
    63   30   32 1    
    64   32   33 1    
    65   32   34 1    
    66   32  100 1    
    67   33  101 1    
    68   33  102 1    
    69   33  103 1    
    70   34   35 am   BACKBONE|DICT|INTERRES
    71   34  104 1    
    72   35   36 2    
    73   37   38 2    
    74   37   39 am   BACKBONE|DICT|INTERRES
    75   39   40 1    
    76   39  105 1    
    77   40   41 1    
    78   40   42 1    
    79   40  106 1    
    80   41  107 1    
    81   41  108 1    
    82   41  109 1    
    83   42   43 2    
    84   42   44 am   BACKBONE|DICT|INTERRES
    85   44   45 1    
    86   44  110 1    
    87   45   46 1    
    88   45   47 1    
    89   45  111 1    
    90   46  112 1    
    91   46  113 1    
    92   46  114 1    
    93   47   48 2    
    94   47   49 am   BACKBONE|DICT|INTERRES
    95   49   50 1    
    96   49  115 1    
    97   50   51 1    
    98   50   52 1    
    99   50  116 1    
   100   51  117 1    
   101   51  118 1    
   102   51  119 1    
   103   52   53 2    
   104   52   54 am   BACKBONE|DICT|INTERRES
   105   54   55 1    
   106   54  120 1    
   107   55   56 1    
   108   55   57 1    
   109   55  121 1    
   110   56  122 1    
   111   56  123 1    
   112   56  124 1    
   113   57   58 2    
   114   57   59 am   BACKBONE|DICT|INTERRES
   115   59   60 1    
   116   59  125 1    
   117   60   61 1    
   118   60   62 1    
   119   60  126 1    
   120   61  127 1    
   121   61  128 1    
   122   61  129 1    
   123   62   63 2    
   124   62   64 am   BACKBONE|DICT|INTERRES
   125   64   65 1    
   126   64  130 1    
   127   65   66 1    
   128   65   69 1    
   129   65  131 1    
   130   66   67 am   BACKBONE|DICT|INTERRES
   131   66   68 2    
   132   67  132 1    
   133   67  133 1    
   134   69   70 1    
   135   69  134 1    
   136   69  135 1    
   137   70   71 1    
   138   71  136 1    
   139   71  137 1    
@<TRIPOS>SUBSTRUCTURE
     1 UNK         1 GROUP             0       ****    0 ROOT    
