@<TRIPOS>MOLECULE
3R136
137   139    1
SMALL
USER_CHARGES


@<TRIPOS>ATOM
      1 CA         27.0980   20.4424   -1.4278 C.3       0 UNK        -0.1979 
      2 C          27.4241   21.0329   -0.0634 C.2       0 UNK         0.4864 
      3 O          26.7717   20.6770    0.9192 O.2       0 UNK        -0.5359 
      4 N          28.4272   21.9224   -0.0152 N.am      1 UNK        -0.4318 
      5 CA         28.9056   22.6841    1.1489 C.3       1 UNK         0.0824 
      6 C6         29.3869   21.7967    2.3360 C.3       12 UNK        -0.0944 
      7 S7         30.8949   20.8615    1.9179 S.3       12 UNK        -0.2672 
      8 C8         32.1786   21.8442    2.7688 C.3       12 UNK         0.0333 
      9 C9         32.2069   23.2953    2.3020 C.ar      12 UNK        -0.0807 
     10 C10        31.9905   24.3397    3.2090 C.ar      12 UNK        -0.0894 
     11 C11        32.0045   25.6698    2.7750 C.ar      12 UNK        -0.0804 
     12 C12        32.2236   25.9495    1.4239 C.ar      12 UNK        -0.0824 
     13 C13        32.4135   24.9139    0.5052 C.ar      12 UNK        -0.0762 
     14 C14        32.4329   23.5917    0.9544 C.ar      12 UNK        -0.0782 
     15 C15        32.5643   25.2162   -0.9773 C.3       12 UNK         0.0230 
     16 S16        30.9353   25.3499   -1.7848 S.3       12 UNK        -0.2608 
     17 C17        30.4275   27.0116   -1.2346 C.3       12 UNK        -0.0989 
     18 CA         29.1941   27.5503   -1.9952 C.3       5 UNK         0.0716 
     19 N          27.9916   26.7725   -1.6858 N.am      5 UNK        -0.4135 
     20 C          27.0389   26.4417   -2.5662 C.2       4 UNK         0.5031 
     21 O          27.0854   26.7108   -3.7673 O.2       4 UNK        -0.5229 
     22 CA         25.8160   25.6842   -2.0132 C.3       4 UNK         0.0329 
     23 CB         26.0450   24.1668   -2.0951 C.3       4 UNK        -0.2001 
     24 N          25.4890   26.0618   -0.6335 N.am      4 UNK        -0.4303 
     25 C          25.0042   27.2652   -0.2856 C.2       3 UNK         0.5044 
     26 O          24.6919   28.1315   -1.1029 O.2       3 UNK        -0.5152 
     27 CA         24.8612   27.5874    1.2156 C.3       3 UNK         0.0319 
     28 CB         23.3934   27.4586    1.6532 C.3       3 UNK        -0.2001 
     29 N          25.6973   26.7856    2.1146 N.am      3 UNK        -0.4354 
     30 C          27.0329   26.6881    2.0751 C.2       2 UNK         0.4964 
     31 O          27.7332   27.2448    1.2300 O.2       2 UNK        -0.5047 
     32 CA         27.7103   25.7810    3.1171 C.3       2 UNK         0.0288 
     33 CB         26.7597   25.2489    4.2139 C.3       2 UNK        -0.2113 
     34 N          28.4199   24.6670    2.4807 N.am      2 UNK        -0.4145 
     35 C          27.9163   23.7744    1.6124 C.2       1 UNK         0.5006 
     36 O          26.7599   23.8152    1.1812 O.2       1 UNK        -0.5103 
     37 C          28.9948   29.0375   -1.6432 C.2       5 UNK         0.5055 
     38 O          29.5602   29.8907   -2.3290 O.2       5 UNK        -0.5220 
     39 N          28.2304   29.3019   -0.5716 N.am      6 UNK        -0.4450 
     40 CA         28.1182   30.5482    0.1938 C.3       6 UNK         0.0367 
     41 CB         27.8474   31.7780   -0.7000 C.3       6 UNK        -0.1929 
     42 C          29.3322   30.7374    1.1254 C.2       6 UNK         0.5070 
     43 O          30.2761   29.9442    1.0899 O.2       6 UNK        -0.5237 
     44 N          29.2595   31.7727    1.9762 N.am      7 UNK        -0.4739 
     45 CA         30.2301   32.1188    3.0266 C.3       7 UNK         0.0276 
     46 CB         31.5793   32.5567    2.4161 C.3       7 UNK        -0.1927 
     47 C          30.3860   31.0030    4.0794 C.2       7 UNK         0.5013 
     48 O          31.5081   30.6648    4.4645 O.2       7 UNK        -0.5193 
     49 N          29.2484   30.4578    4.5381 N.am      8 UNK        -0.4253 
     50 CA         29.1182   29.3602    5.5079 C.3       8 UNK         0.0242 
     51 CB         27.6723   28.8312    5.4549 C.3       8 UNK        -0.2000 
     52 C          29.5553   29.7386    6.9420 C.2       8 UNK         0.4948 
     53 O          28.7765   29.6100    7.8883 O.2       8 UNK        -0.5275 
     54 N          30.7990   30.2061    7.0580 N.am      9 UNK        -0.4246 
     55 CA         31.4850   30.6883    8.2567 C.3       9 UNK         0.0261 
     56 CB         30.7965   31.9481    8.8215 C.3       9 UNK        -0.1959 
     57 C          32.9655   30.9912    7.9647 C.2       9 UNK         0.5033 
     58 O          33.7745   30.9393    8.8921 O.2       9 UNK        -0.5390 
     59 N          33.3045   31.3012    6.7046 N.am      10 UNK        -0.4215 
     60 CA         34.6534   31.6109    6.2400 C.3       10 UNK         0.0240 
     61 CB         34.8844   33.1341    6.2908 C.3       10 UNK        -0.1982 
     62 C          34.7964   31.0218    4.8322 C.2       10 UNK         0.4970 
     63 O          34.8325   31.7635    3.8494 O.2       10 UNK        -0.4916 
     64 N          34.8069   29.6850    4.7727 N.am      11 UNK        -0.4279 
     65 CA         34.7619   28.8805    3.5409 C.3       11 UNK         0.1003 
     66 C          35.9680   29.0590    2.5721 C.2       11 UNK         0.5709 
     67 N          37.1093   29.5707    3.0182 N.am      11 UNK        -0.7358 
     68 O          35.8638   28.7241    1.3947 O.2       11 UNK        -0.4999 
     69 C69        34.5516   27.3756    3.8548 C.3       12 UNK        -0.0954 
     70 S70        33.1225   27.0325    4.9412 S.3       12 UNK        -0.2268 
     71 C71        31.7608   26.8113    3.7533 C.3       12 UNK         0.0203 
     72 H72        26.0700   20.6790   -1.7012 H         1 UNK         0.0888 
     73 H73        27.7527   20.8290   -2.2088 H         1 UNK         0.0888 
     74 H74        27.2041   19.3582   -1.4029 H         1 UNK         0.0888 
     75 H75        28.9020   22.1483   -0.8774 H         1 UNK         0.3017 
     76 H76        29.7623   23.2408    0.7713 H         1 UNK         0.0873 
     77 H77        28.6142   21.0918    2.6431 H         1 UNK         0.0745 
     78 H78        29.5970   22.3899    3.2272 H         1 UNK         0.0745 
     79 H79        33.1529   21.3913    2.5807 H         1 UNK         0.0705 
     80 H80        32.0145   21.7840    3.8459 H         1 UNK         0.0705 
     81 H81        31.8175   24.1224    4.2545 H         1 UNK         0.1334 
     82 H82        32.2267   26.9763    1.0838 H         1 UNK         0.1417 
     83 H83        32.5826   22.7858    0.2483 H         1 UNK         0.1562 
     84 H84        33.1336   24.4233   -1.4648 H         1 UNK         0.0748 
     85 H85        33.1361   26.1337   -1.1249 H         1 UNK         0.0748 
     86 H86        31.2794   27.6828   -1.3662 H         1 UNK         0.0940 
     87 H87        30.2204   26.9833   -0.1633 H         1 UNK         0.0940 
     88 H88        29.4041   27.4956   -3.0658 H         1 UNK         0.0703 
     89 H89        27.8534   26.5390   -0.7102 H         1 UNK         0.3081 
     90 H90        24.9584   25.9317   -2.6427 H         1 UNK         0.0719 
     91 H91        26.1959   23.8515   -3.1284 H         1 UNK         0.0809 
     92 H92        26.9275   23.8639   -1.5324 H         1 UNK         0.0809 
     93 H93        25.1914   23.6110   -1.7066 H         1 UNK         0.0809 
     94 H94        25.7224   25.3940    0.0940 H         1 UNK         0.2990 
     95 H95        25.1633   28.6289    1.3439 H         1 UNK         0.0690 
     96 H96        23.2535   27.7927    2.6815 H         1 UNK         0.0788 
     97 H97        23.0409   26.4287    1.5820 H         1 UNK         0.0788 
     98 H98        22.7425   28.0698    1.0260 H         1 UNK         0.0788 
     99 H99        25.2100   26.2522    2.8202 H         1 UNK         0.2993 
    100 H100       28.4673   26.3982    3.6021 H         1 UNK         0.0949 
    101 H101       26.2568   26.0633    4.7373 H         1 UNK         0.0767 
    102 H102       25.9943   24.5842    3.8111 H         1 UNK         0.0767 
    103 H103       27.3138   24.6869    4.9661 H         1 UNK         0.0767 
    104 H104       29.3999   24.5926    2.7159 H         1 UNK         0.3013 
    105 H105       27.9176   28.4915   -0.0409 H         1 UNK         0.3121 
    106 H106       27.2495   30.4083    0.8389 H         1 UNK         0.0774 
    107 H107       27.0645   31.5733   -1.4303 H         1 UNK         0.0815 
    108 H108       27.5167   32.6308   -0.1069 H         1 UNK         0.0815 
    109 H109       28.7394   32.0934   -1.2420 H         1 UNK         0.0815 
    110 H110       28.4420   32.3660    1.9302 H         1 UNK         0.2987 
    111 H111       29.8200   32.9791    3.5581 H         1 UNK         0.0949 
    112 H112       31.4457   33.3497    1.6807 H         1 UNK         0.0806 
    113 H113       32.2504   32.9389    3.1866 H         1 UNK         0.0806 
    114 H114       32.0936   31.7279    1.9282 H         1 UNK         0.0806 
    115 H115       28.3814   30.8298    4.1795 H         1 UNK         0.3010 
    116 H116       29.7778   28.5545    5.1830 H         1 UNK         0.0829 
    117 H117       27.5570   27.9453    6.0810 H         1 UNK         0.0813 
    118 H118       26.9583   29.5757    5.8095 H         1 UNK         0.0813 
    119 H119       27.3849   28.5532    4.4419 H         1 UNK         0.0813 
    120 H120       31.3255   30.2396    6.1882 H         1 UNK         0.3038 
    121 H121       31.4510   29.8961    9.0071 H         1 UNK         0.0769 
    122 H122       31.3442   32.3419    9.6789 H         1 UNK         0.0811 
    123 H123       29.7835   31.7371    9.1633 H         1 UNK         0.0811 
    124 H124       30.7405   32.7427    8.0766 H         1 UNK         0.0811 
    125 H125       32.6057   31.2942    5.9675 H         1 UNK         0.3204 
    126 H126       35.3960   31.1242    6.8762 H         1 UNK         0.0748 
    127 H127       35.8763   33.3911    5.9171 H         1 UNK         0.0771 
    128 H128       34.1549   33.6740    5.6857 H         1 UNK         0.0771 
    129 H129       34.8145   33.5099    7.3117 H         1 UNK         0.0771 
    130 H130       34.7509   29.1602    5.6327 H         1 UNK         0.2980 
    131 H131       33.8841   29.2228    2.9886 H         1 UNK         0.0545 
    132 H132       37.2014   29.8519    3.9808 H         1 UNK         0.3459 
    133 H133       37.8821   29.6839    2.3815 H         1 UNK         0.3459 
    134 H134       34.4530   26.8005    2.9338 H         1 UNK         0.0616 
    135 H135       35.4360   26.9759    4.3543 H         1 UNK         0.0616 
    136 H136       30.8473   26.6064    4.3114 H         1 UNK         0.0634 
    137 H137       31.5944   27.7530    3.2264 H         1 UNK         0.0634 
@<TRIPOS>BOND
     1    1    2 1    
     2    1   72 1    
     3    1   73 1    
     4    1   74 1    
     5    2    3 2    
     6    2    4 am   BACKBONE|DICT|INTERRES
     7    4    5 1    
     8    4   75 1    
     9    5    6 1    
    10    5   35 1    
    11    5   76 1    
    12    6    7 1    
    13    6   77 1    
    14    6   78 1    
    15    7    8 1    
    16    8    9 1    
    17    8   79 1    
    18    8   80 1    
    19    9   10 ar   
    20    9   14 ar   
    21   10   11 ar   
    22   10   81 1    
    23   11   12 ar   
    24   11   71 1    
    25   12   13 ar   
    26   12   82 1    
    27   13   14 ar   
    28   13   15 1    
    29   14   83 1    
    30   15   16 1    
    31   15   84 1    
    32   15   85 1    
    33   16   17 1    
    34   17   18 1    
    35   17   86 1    
    36   17   87 1    
    37   18   19 1    
    38   18   37 1    
    39   18   88 1    
    40   19   20 am   BACKBONE|DICT|INTERRES
    41   19   89 1    
    42   20   21 2    
    43   20   22 1    
    44   22   23 1    
    45   22   24 1    
    46   22   90 1    
    47   23   91 1    
    48   23   92 1    
    49   23   93 1    
    50   24   25 am   BACKBONE|DICT|INTERRES
    51   24   94 1    
    52   25   26 2    
    53   25   27 1    
    54   27   28 1    
    55   27   29 1    
    56   27   95 1    
    57   28   96 1    
    58   28   97 1    
    59   28   98 1    
    60   29   30 am   BACKBONE|DICT|INTERRES
    61   29   99 1    
    62   30   31 2    
    63   30   32 1    
    64   32   33 1    
    65   32   34 1    
    66   32  100 1    
    67   33  101 1    
    68   33  102 1    
    69   33  103 1    
    70   34   35 am   BACKBONE|DICT|INTERRES
    71   34  104 1    
    72   35   36 2    
    73   37   38 2    
    74   37   39 am   BACKBONE|DICT|INTERRES
    75   39   40 1    
    76   39  105 1    
    77   40   41 1    
    78   40   42 1    
    79   40  106 1    
    80   41  107 1    
    81   41  108 1    
    82   41  109 1    
    83   42   43 2    
    84   42   44 am   BACKBONE|DICT|INTERRES
    85   44   45 1    
    86   44  110 1    
    87   45   46 1    
    88   45   47 1    
    89   45  111 1    
    90   46  112 1    
    91   46  113 1    
    92   46  114 1    
    93   47   48 2    
    94   47   49 am   BACKBONE|DICT|INTERRES
    95   49   50 1    
    96   49  115 1    
    97   50   51 1    
    98   50   52 1    
    99   50  116 1    
   100   51  117 1    
   101   51  118 1    
   102   51  119 1    
   103   52   53 2    
   104   52   54 am   BACKBONE|DICT|INTERRES
   105   54   55 1    
   106   54  120 1    
   107   55   56 1    
   108   55   57 1    
   109   55  121 1    
   110   56  122 1    
   111   56  123 1    
   112   56  124 1    
   113   57   58 2    
   114   57   59 am   BACKBONE|DICT|INTERRES
   115   59   60 1    
   116   59  125 1    
   117   60   61 1    
   118   60   62 1    
   119   60  126 1    
   120   61  127 1    
   121   61  128 1    
   122   61  129 1    
   123   62   63 2    
   124   62   64 am   BACKBONE|DICT|INTERRES
   125   64   65 1    
   126   64  130 1    
   127   65   66 1    
   128   65   69 1    
   129   65  131 1    
   130   66   67 am   BACKBONE|DICT|INTERRES
   131   66   68 2    
   132   67  132 1    
   133   67  133 1    
   134   69   70 1    
   135   69  134 1    
   136   69  135 1    
   137   70   71 1    
   138   71  136 1    
   139   71  137 1    
@<TRIPOS>SUBSTRUCTURE
     1 UNK         1 GROUP             0       ****    0 ROOT    
