@<TRIPOS>MOLECULE
3R136
137   139    1
SMALL
USER_CHARGES


@<TRIPOS>ATOM
      1 CA         30.2536   23.5999    4.4257 C.3       0 UNK        -0.1979 
      2 C          30.8041   23.7412    3.0154 C.2       0 UNK         0.4864 
      3 O          31.0873   22.7338    2.3666 O.2       0 UNK        -0.5359 
      4 N          30.9641   24.9875    2.5469 N.am      1 UNK        -0.4318 
      5 CA         31.5374   25.3460    1.2417 C.3       1 UNK         0.0824 
      6 C6         31.6605   26.8791    1.0566 C.3       12 UNK        -0.0944 
      7 S7         32.6558   27.6971    2.3461 S.3       12 UNK        -0.2672 
      8 C8         31.4485   28.8275    3.1048 C.3       12 UNK         0.0333 
      9 C9         30.5875   28.0958    4.1167 C.ar      12 UNK        -0.0807 
     10 C10        31.0451   27.9338    5.4250 C.ar      12 UNK        -0.0894 
     11 C11        30.3181   27.1734    6.3477 C.ar      12 UNK        -0.0804 
     12 C12        29.0799   26.6463    5.9634 C.ar      12 UNK        -0.0824 
     13 C13        28.5935   26.8327    4.6645 C.ar      12 UNK        -0.0762 
     14 C14        29.3569   27.5539    3.7432 C.ar      12 UNK        -0.0782 
     15 C15        27.2690   26.2118    4.2455 C.3       12 UNK         0.0230 
     16 S16        25.8745   27.3762    4.3911 S.3       12 UNK        -0.2608 
     17 C17        26.1094   28.5472    3.0025 C.3       12 UNK        -0.0989 
     18 CA         26.1735   27.8851    1.5923 C.3       5 UNK         0.0716 
     19 N          25.0767   26.9508    1.3317 N.am      5 UNK        -0.4135 
     20 C          23.7748   27.2471    1.2014 C.2       4 UNK         0.5031 
     21 O          23.3256   28.3925    1.2756 O.2       4 UNK        -0.5229 
     22 CA         22.7947   26.0686    1.0014 C.3       4 UNK         0.0329 
     23 CB         21.6305   26.4226    0.0505 C.3       4 UNK        -0.2001 
     24 N          23.4411   24.8050    0.6159 N.am      4 UNK        -0.4303 
     25 C          24.0856   24.5406   -0.5290 C.2       3 UNK         0.5044 
     26 O          24.1501   25.3085   -1.4908 O.2       3 UNK        -0.5152 
     27 CA         24.8252   23.1932   -0.5901 C.3       3 UNK         0.0319 
     28 CB         24.1507   22.2419   -1.5919 C.3       3 UNK        -0.2001 
     29 N          26.2292   23.3819   -0.9628 N.am      3 UNK        -0.4354 
     30 C          27.1211   24.0804   -0.2472 C.2       2 UNK         0.4964 
     31 O          26.8811   24.5819    0.8567 O.2       2 UNK        -0.5047 
     32 CA         28.4995   24.2755   -0.8880 C.3       2 UNK         0.0288 
     33 CB         28.4247   25.3031   -2.0361 C.3       2 UNK        -0.2113 
     34 N          29.4287   24.7344    0.1395 N.am      2 UNK        -0.4145 
     35 C          30.7635   24.7573    0.0424 C.2       1 UNK         0.5006 
     36 O          31.3870   24.3577   -0.9428 O.2       1 UNK        -0.5103 
     37 C          26.3433   28.8718    0.4154 C.2       5 UNK         0.5055 
     38 O          26.6822   28.4211   -0.6797 O.2       5 UNK        -0.5220 
     39 N          26.1233   30.1761    0.6508 N.am      6 UNK        -0.4450 
     40 CA         26.2259   31.2795   -0.3173 C.3       6 UNK         0.0367 
     41 CB         25.1407   31.1555   -1.4091 C.3       6 UNK        -0.1929 
     42 C          27.6471   31.4496   -0.8945 C.2       6 UNK         0.5070 
     43 O          27.8122   31.6706   -2.0956 O.2       6 UNK        -0.5237 
     44 N          28.6497   31.3506   -0.0165 N.am      7 UNK        -0.4739 
     45 CA         30.0733   31.5066   -0.3036 C.3       7 UNK         0.0276 
     46 CB         30.6374   30.1868   -0.8641 C.3       7 UNK        -0.1927 
     47 C          30.7830   31.9200    0.9931 C.2       7 UNK         0.5013 
     48 O          30.1642   31.8810    2.0613 O.2       7 UNK        -0.5193 
     49 N          32.0636   32.2896    0.8866 N.am      8 UNK        -0.4253 
     50 CA         32.9180   32.6468    2.0160 C.3       8 UNK         0.0242 
     51 CB         33.0941   34.1749    2.0716 C.3       8 UNK        -0.2000 
     52 C          34.2636   31.9312    1.8581 C.2       8 UNK         0.4948 
     53 O          34.9834   32.2018    0.8948 O.2       8 UNK        -0.5275 
     54 N          34.5665   31.0444    2.8089 N.am      9 UNK        -0.4246 
     55 CA         35.7906   30.2652    2.9795 C.3       9 UNK         0.0261 
     56 CB         36.0426   29.3157    1.7877 C.3       9 UNK        -0.1959 
     57 C          35.6374   29.4954    4.3015 C.2       9 UNK         0.5033 
     58 O          34.5724   29.5604    4.9258 O.2       9 UNK        -0.5390 
     59 N          36.6869   28.7745    4.7150 N.am      10 UNK        -0.4215 
     60 CA         36.7725   28.0341    5.9822 C.3       10 UNK         0.0240 
     61 CB         38.2590   27.8050    6.3188 C.3       10 UNK        -0.1982 
     62 C          35.9479   26.7253    6.0193 C.2       10 UNK         0.4970 
     63 O          36.4485   25.7027    6.4913 O.2       10 UNK        -0.4916 
     64 N          34.7010   26.7836    5.5368 N.am      11 UNK        -0.4279 
     65 CA         33.6955   25.7056    5.5522 C.3       11 UNK         0.1003 
     66 C          34.1004   24.4291    4.7555 C.2       11 UNK         0.5709 
     67 N          34.9072   24.5498    3.7078 N.am      11 UNK        -0.7358 
     68 O          33.6673   23.3231    5.0693 O.2       11 UNK        -0.4999 
     69 C69        33.1501   25.3978    6.9812 C.3       12 UNK        -0.0954 
     70 S70        32.6593   26.8845    7.9293 S.3       12 UNK        -0.2268 
     71 C71        30.8372   26.9081    7.7615 C.3       12 UNK         0.0203 
     72 H72        30.5536   24.4391    5.0512 H         1 UNK         0.0888 
     73 H73        29.1655   23.5477    4.4064 H         1 UNK         0.0888 
     74 H74        30.6335   22.6908    4.8917 H         1 UNK         0.0888 
     75 H75        30.7371   25.7715    3.1437 H         1 UNK         0.3017 
     76 H76        32.5424   24.9192    1.2132 H         1 UNK         0.0873 
     77 H77        30.6707   27.3345    1.0128 H         1 UNK         0.0745 
     78 H78        32.1350   27.1065    0.0996 H         1 UNK         0.0745 
     79 H79        30.8313   29.2886    2.3348 H         1 UNK         0.0705 
     80 H80        31.9827   29.6417    3.5959 H         1 UNK         0.0705 
     81 H81        31.9957   28.3674    5.7039 H         1 UNK         0.1334 
     82 H82        28.4991   26.0727    6.6732 H         1 UNK         0.1417 
     83 H83        29.0028   27.6855    2.7319 H         1 UNK         0.1562 
     84 H84        27.0539   25.3506    4.8800 H         1 UNK         0.0748 
     85 H85        27.3347   25.8114    3.2348 H         1 UNK         0.0748 
     86 H86        27.0101   29.1318    3.1974 H         1 UNK         0.0940 
     87 H87        25.2760   29.2498    3.0555 H         1 UNK         0.0940 
     88 H88        27.0749   27.2760    1.5554 H         1 UNK         0.0703 
     89 H89        25.3670   25.9873    1.2127 H         1 UNK         0.3081 
     90 H90        22.3607   25.8853    1.9854 H         1 UNK         0.0719 
     91 H91        20.9486   25.5815   -0.0742 H         1 UNK         0.0809 
     92 H92        21.9863   26.7174   -0.9369 H         1 UNK         0.0809 
     93 H93        21.0456   27.2556    0.4426 H         1 UNK         0.0809 
     94 H94        23.4597   24.0980    1.3390 H         1 UNK         0.2990 
     95 H95        24.8030   22.7248    0.3964 H         1 UNK         0.0690 
     96 H96        24.6435   21.2696   -1.6111 H         1 UNK         0.0788 
     97 H97        24.1642   22.6463   -2.6050 H         1 UNK         0.0788 
     98 H98        23.1072   22.0703   -1.3240 H         1 UNK         0.0788 
     99 H99        26.5005   23.0375   -1.8724 H         1 UNK         0.2993 
    100 H100       28.8433   23.3120   -1.2705 H         1 UNK         0.0949 
    101 H101       28.1084   26.2827   -1.6750 H         1 UNK         0.0767 
    102 H102       29.3883   25.4258   -2.5304 H         1 UNK         0.0767 
    103 H103       27.7117   24.9934   -2.8011 H         1 UNK         0.0767 
    104 H104       28.9795   25.0180    1.0007 H         1 UNK         0.3013 
    105 H105       25.8347   30.4452    1.5807 H         1 UNK         0.3121 
    106 H106       26.0195   32.1942    0.2406 H         1 UNK         0.0774 
    107 H107       25.1252   32.0401   -2.0468 H         1 UNK         0.0815 
    108 H108       25.3115   30.2937   -2.0550 H         1 UNK         0.0815 
    109 H109       24.1475   31.0541   -0.9716 H         1 UNK         0.0815 
    110 H110       28.4441   31.2420    0.9695 H         1 UNK         0.2987 
    111 H111       30.2098   32.3076   -1.0337 H         1 UNK         0.0949 
    112 H112       30.1522   29.9157   -1.8019 H         1 UNK         0.0806 
    113 H113       31.7067   30.2597   -1.0655 H         1 UNK         0.0806 
    114 H114       30.4900   29.3634   -0.1668 H         1 UNK         0.0806 
    115 H115       32.5246   32.2550   -0.0131 H         1 UNK         0.3010 
    116 H116       32.4631   32.3246    2.9558 H         1 UNK         0.0829 
    117 H117       32.1386   34.6767    2.2252 H         1 UNK         0.0813 
    118 H118       33.7482   34.4624    2.8958 H         1 UNK         0.0813 
    119 H119       33.5334   34.5663    1.1531 H         1 UNK         0.0813 
    120 H120       33.9179   30.8818    3.5721 H         1 UNK         0.3038 
    121 H121       36.6284   30.9574    3.0817 H         1 UNK         0.0769 
    122 H122       35.2200   28.6193    1.6393 H         1 UNK         0.0811 
    123 H123       36.1806   29.8646    0.8568 H         1 UNK         0.0811 
    124 H124       36.9456   28.7227    1.9339 H         1 UNK         0.0811 
    125 H125       37.5103   28.7482    4.1307 H         1 UNK         0.3204 
    126 H126       36.3584   28.6711    6.7668 H         1 UNK         0.0748 
    127 H127       38.3738   27.3359    7.2971 H         1 UNK         0.0771 
    128 H128       38.7425   27.1569    5.5867 H         1 UNK         0.0771 
    129 H129       38.8092   28.7457    6.3514 H         1 UNK         0.0771 
    130 H130       34.3844   27.6849    5.1913 H         1 UNK         0.2980 
    131 H131       32.8593   26.0913    4.9748 H         1 UNK         0.0545 
    132 H132       35.1681   23.7265    3.1894 H         1 UNK         0.3459 
    133 H133       35.2599   25.4532    3.4370 H         1 UNK         0.3459 
    134 H134       32.2951   24.7222    6.9256 H         1 UNK         0.0616 
    135 H135       33.9099   24.8739    7.5632 H         1 UNK         0.0616 
    136 H136       30.4475   25.9593    8.1337 H         1 UNK         0.0634 
    137 H137       30.4435   27.6832    8.4198 H         1 UNK         0.0634 
@<TRIPOS>BOND
     1    1    2 1    
     2    1   72 1    
     3    1   73 1    
     4    1   74 1    
     5    2    3 2    
     6    2    4 am   BACKBONE|DICT|INTERRES
     7    4    5 1    
     8    4   75 1    
     9    5    6 1    
    10    5   35 1    
    11    5   76 1    
    12    6    7 1    
    13    6   77 1    
    14    6   78 1    
    15    7    8 1    
    16    8    9 1    
    17    8   79 1    
    18    8   80 1    
    19    9   10 ar   
    20    9   14 ar   
    21   10   11 ar   
    22   10   81 1    
    23   11   12 ar   
    24   11   71 1    
    25   12   13 ar   
    26   12   82 1    
    27   13   14 ar   
    28   13   15 1    
    29   14   83 1    
    30   15   16 1    
    31   15   84 1    
    32   15   85 1    
    33   16   17 1    
    34   17   18 1    
    35   17   86 1    
    36   17   87 1    
    37   18   19 1    
    38   18   37 1    
    39   18   88 1    
    40   19   20 am   BACKBONE|DICT|INTERRES
    41   19   89 1    
    42   20   21 2    
    43   20   22 1    
    44   22   23 1    
    45   22   24 1    
    46   22   90 1    
    47   23   91 1    
    48   23   92 1    
    49   23   93 1    
    50   24   25 am   BACKBONE|DICT|INTERRES
    51   24   94 1    
    52   25   26 2    
    53   25   27 1    
    54   27   28 1    
    55   27   29 1    
    56   27   95 1    
    57   28   96 1    
    58   28   97 1    
    59   28   98 1    
    60   29   30 am   BACKBONE|DICT|INTERRES
    61   29   99 1    
    62   30   31 2    
    63   30   32 1    
    64   32   33 1    
    65   32   34 1    
    66   32  100 1    
    67   33  101 1    
    68   33  102 1    
    69   33  103 1    
    70   34   35 am   BACKBONE|DICT|INTERRES
    71   34  104 1    
    72   35   36 2    
    73   37   38 2    
    74   37   39 am   BACKBONE|DICT|INTERRES
    75   39   40 1    
    76   39  105 1    
    77   40   41 1    
    78   40   42 1    
    79   40  106 1    
    80   41  107 1    
    81   41  108 1    
    82   41  109 1    
    83   42   43 2    
    84   42   44 am   BACKBONE|DICT|INTERRES
    85   44   45 1    
    86   44  110 1    
    87   45   46 1    
    88   45   47 1    
    89   45  111 1    
    90   46  112 1    
    91   46  113 1    
    92   46  114 1    
    93   47   48 2    
    94   47   49 am   BACKBONE|DICT|INTERRES
    95   49   50 1    
    96   49  115 1    
    97   50   51 1    
    98   50   52 1    
    99   50  116 1    
   100   51  117 1    
   101   51  118 1    
   102   51  119 1    
   103   52   53 2    
   104   52   54 am   BACKBONE|DICT|INTERRES
   105   54   55 1    
   106   54  120 1    
   107   55   56 1    
   108   55   57 1    
   109   55  121 1    
   110   56  122 1    
   111   56  123 1    
   112   56  124 1    
   113   57   58 2    
   114   57   59 am   BACKBONE|DICT|INTERRES
   115   59   60 1    
   116   59  125 1    
   117   60   61 1    
   118   60   62 1    
   119   60  126 1    
   120   61  127 1    
   121   61  128 1    
   122   61  129 1    
   123   62   63 2    
   124   62   64 am   BACKBONE|DICT|INTERRES
   125   64   65 1    
   126   64  130 1    
   127   65   66 1    
   128   65   69 1    
   129   65  131 1    
   130   66   67 am   BACKBONE|DICT|INTERRES
   131   66   68 2    
   132   67  132 1    
   133   67  133 1    
   134   69   70 1    
   135   69  134 1    
   136   69  135 1    
   137   70   71 1    
   138   71  136 1    
   139   71  137 1    
@<TRIPOS>SUBSTRUCTURE
     1 UNK         1 GROUP             0       ****    0 ROOT    
