@<TRIPOS>MOLECULE
3R136
137   139    1
SMALL
USER_CHARGES


@<TRIPOS>ATOM
      1 CA         30.1845   27.3781   -2.2843 C.3       0 UNK        -0.1979 
      2 C          29.4969   26.3629   -1.3856 C.2       0 UNK         0.4864 
      3 O          28.3460   26.5753   -1.0059 O.2       0 UNK        -0.5359 
      4 N          30.1774   25.2482   -1.0782 N.am      1 UNK        -0.4318 
      5 CA         29.7368   24.1535   -0.1956 C.3       1 UNK         0.0824 
      6 C6         30.7428   22.9724   -0.1994 C.3       12 UNK        -0.0944 
      7 S7         32.4703   23.4686    0.1141 S.3       12 UNK        -0.2672 
      8 C8         32.9013   22.4358    1.5498 C.3       12 UNK         0.0333 
      9 C9         32.3154   22.9936    2.8369 C.ar      12 UNK        -0.0807 
     10 C10        32.8597   24.1525    3.3939 C.ar      12 UNK        -0.0894 
     11 C11        32.3360   24.6909    4.5711 C.ar      12 UNK        -0.0804 
     12 C12        31.2858   24.0327    5.2177 C.ar      12 UNK        -0.0824 
     13 C13        30.7336   22.8665    4.6741 C.ar      12 UNK        -0.0762 
     14 C14        31.2484   22.3561    3.4775 C.ar      12 UNK        -0.0782 
     15 C15        29.5982   22.1417    5.3865 C.3       12 UNK         0.0230 
     16 S16        27.9572   22.7521    4.8776 S.3       12 UNK        -0.2608 
     17 C17        27.8860   24.3577    5.7399 C.3       12 UNK        -0.0989 
     18 CA         28.1090   25.5395    4.7605 C.3       5 UNK         0.0716 
     19 N          26.9545   25.7160    3.8664 N.am      5 UNK        -0.4135 
     20 C          26.9939   26.2558    2.6430 C.2       4 UNK         0.5031 
     21 O          28.0294   26.6252    2.0900 O.2       4 UNK        -0.5229 
     22 CA         25.6357   26.5686    2.0101 C.3       4 UNK         0.0329 
     23 CB         25.1409   27.9469    2.5013 C.3       4 UNK        -0.2001 
     24 N          25.7383   26.5519    0.5527 N.am      4 UNK        -0.4303 
     25 C          24.6880   26.5337   -0.2804 C.2       3 UNK         0.5044 
     26 O          23.5136   26.5485    0.0914 O.2       3 UNK        -0.5152 
     27 CA         24.9891   26.4540   -1.7823 C.3       3 UNK         0.0319 
     28 CB         25.5159   27.7960   -2.3200 C.3       3 UNK        -0.2001 
     29 N          25.9471   25.3842   -2.0541 N.am      3 UNK        -0.4354 
     30 C          25.6095   24.0936   -2.1964 C.2       2 UNK         0.4964 
     31 O          24.4458   23.6898   -2.2028 O.2       2 UNK        -0.5047 
     32 CA         26.7448   23.0693   -2.3732 C.3       2 UNK         0.0288 
     33 CB         26.9197   22.7131   -3.8588 C.3       2 UNK        -0.2113 
     34 N          28.0295   23.5200   -1.8378 N.am      2 UNK        -0.4145 
     35 C          28.3326   23.6061   -0.5338 C.2       1 UNK         0.5006 
     36 O          27.5664   23.2760    0.3724 O.2       1 UNK        -0.5103 
     37 C          28.4937   26.8486    5.4982 C.2       5 UNK         0.5055 
     38 O          29.1857   26.7970    6.5162 O.2       5 UNK        -0.5220 
     39 N          28.0461   27.9973    4.9790 N.am      6 UNK        -0.4450 
     40 CA         28.3737   29.3476    5.4252 C.3       6 UNK         0.0367 
     41 CB         27.5459   29.7182    6.6728 C.3       6 UNK        -0.1929 
     42 C          28.1731   30.3266    4.2550 C.2       6 UNK         0.5070 
     43 O          27.6765   31.4344    4.4595 O.2       6 UNK        -0.5237 
     44 N          28.5310   29.8938    3.0342 N.am      7 UNK        -0.4739 
     45 CA         28.3754   30.6650    1.7918 C.3       7 UNK         0.0276 
     46 CB         28.6130   29.7323    0.5921 C.3       7 UNK        -0.1927 
     47 C          29.2890   31.9035    1.6996 C.2       7 UNK         0.5013 
     48 O          28.9919   32.8223    0.9354 O.2       7 UNK        -0.5193 
     49 N          30.3724   31.9023    2.4799 N.am      8 UNK        -0.4253 
     50 CA         31.3640   32.9575    2.6463 C.3       8 UNK         0.0242 
     51 CB         32.2772   33.0372    1.4068 C.3       8 UNK        -0.2000 
     52 C          32.1618   32.6169    3.9121 C.2       8 UNK         0.4948 
     53 O          31.9807   31.5268    4.4638 O.2       8 UNK        -0.5275 
     54 N          33.0673   33.5144    4.3254 N.am      9 UNK        -0.4246 
     55 CA         33.9286   33.3610    5.5092 C.3       9 UNK         0.0261 
     56 CB         34.7936   34.6212    5.6757 C.3       9 UNK        -0.1959 
     57 C          34.8148   32.0977    5.5081 C.2       9 UNK         0.5033 
     58 O          35.1068   31.5685    6.5815 O.2       9 UNK        -0.5390 
     59 N          35.1994   31.6322    4.3127 N.am      10 UNK        -0.4215 
     60 CA         35.9067   30.3696    4.0763 C.3       10 UNK         0.0240 
     61 CB         37.2802   30.6801    3.4515 C.3       10 UNK        -0.1982 
     62 C          35.0816   29.4088    3.1948 C.2       10 UNK         0.4970 
     63 O          35.6526   28.4713    2.6367 O.2       10 UNK        -0.4916 
     64 N          33.7709   29.6645    3.0612 N.am      11 UNK        -0.4279 
     65 CA         32.7980   28.9161    2.2410 C.3       11 UNK         0.1003 
     66 C          33.0438   28.9504    0.7008 C.2       11 UNK         0.5709 
     67 N          33.9515   29.7693    0.1833 N.am      11 UNK        -0.7358 
     68 O          32.3704   28.2497   -0.0484 O.2       11 UNK        -0.4999 
     69 C69        32.5437   27.4753    2.7618 C.3       12 UNK        -0.0954 
     70 S70        32.0111   27.4404    4.5064 S.3       12 UNK        -0.2268 
     71 C71        32.9034   25.9844    5.1388 C.3       12 UNK         0.0203 
     72 H72        29.6582   27.4564   -3.2349 H         1 UNK         0.0888 
     73 H73        30.1791   28.3586   -1.8093 H         1 UNK         0.0888 
     74 H74        31.2210   27.1078   -2.4850 H         1 UNK         0.0888 
     75 H75        31.1271   25.1540   -1.4105 H         1 UNK         0.3017 
     76 H76        29.6883   24.5663    0.8148 H         1 UNK         0.0873 
     77 H77        30.4424   22.2264    0.5388 H         1 UNK         0.0745 
     78 H78        30.7296   22.4597   -1.1635 H         1 UNK         0.0745 
     79 H79        33.9880   22.3993    1.6399 H         1 UNK         0.0705 
     80 H80        32.5771   21.4080    1.3789 H         1 UNK         0.0705 
     81 H81        33.6844   24.6420    2.8954 H         1 UNK         0.1334 
     82 H82        30.8929   24.4406    6.1386 H         1 UNK         0.1417 
     83 H83        30.8241   21.4567    3.0520 H         1 UNK         0.1562 
     84 H84        29.7093   22.2300    6.4683 H         1 UNK         0.0748 
     85 H85        29.6514   21.0737    5.1697 H         1 UNK         0.0748 
     86 H86        28.6200   24.3478    6.5462 H         1 UNK         0.0940 
     87 H87        26.9182   24.4482    6.2359 H         1 UNK         0.0940 
     88 H88        28.9773   25.3014    4.1420 H         1 UNK         0.0703 
     89 H89        26.0576   25.4636    4.2562 H         1 UNK         0.3081 
     90 H90        24.9271   25.7952    2.3142 H         1 UNK         0.0719 
     91 H91        25.0939   27.9888    3.5902 H         1 UNK         0.0809 
     92 H92        24.1386   28.1699    2.1365 H         1 UNK         0.0809 
     93 H93        25.7994   28.7507    2.1696 H         1 UNK         0.0809 
     94 H94        26.6865   26.5310    0.1799 H         1 UNK         0.2990 
     95 H95        24.0546   26.2368   -2.3044 H         1 UNK         0.0690 
     96 H96        25.7299   27.7380   -3.3872 H         1 UNK         0.0788 
     97 H97        26.4261   28.1169   -1.8134 H         1 UNK         0.0788 
     98 H98        24.7753   28.5843   -2.1801 H         1 UNK         0.0788 
     99 H99        26.9272   25.6347   -1.9645 H         1 UNK         0.2993 
    100 H100       26.4511   22.1645   -1.8360 H         1 UNK         0.0949 
    101 H101       25.9859   22.3418   -4.2837 H         1 UNK         0.0767 
    102 H102       27.2246   23.5785   -4.4488 H         1 UNK         0.0767 
    103 H103       27.6679   21.9317   -3.9946 H         1 UNK         0.0767 
    104 H104       28.7235   23.8176   -2.5082 H         1 UNK         0.3013 
    105 H105       27.4953   27.9449    4.1342 H         1 UNK         0.3121 
    106 H106       29.4342   29.3836    5.6853 H         1 UNK         0.0774 
    107 H107       27.8026   30.7158    7.0314 H         1 UNK         0.0815 
    108 H108       26.4763   29.7104    6.4604 H         1 UNK         0.0815 
    109 H109       27.7299   29.0263    7.4946 H         1 UNK         0.0815 
    110 H110       28.9381   28.9724    2.9397 H         1 UNK         0.2987 
    111 H111       27.3453   31.0251    1.7460 H         1 UNK         0.0949 
    112 H112       27.8890   28.9177    0.5712 H         1 UNK         0.0806 
    113 H113       28.5143   30.2704   -0.3516 H         1 UNK         0.0806 
    114 H114       29.6099   29.2899    0.6129 H         1 UNK         0.0806 
    115 H115       30.4998   31.1378    3.1328 H         1 UNK         0.3010 
    116 H116       30.8509   33.9089    2.8002 H         1 UNK         0.0829 
    117 H117       31.7061   33.2503    0.5032 H         1 UNK         0.0813 
    118 H118       33.0176   33.8314    1.5066 H         1 UNK         0.0813 
    119 H119       32.8160   32.1047    1.2439 H         1 UNK         0.0813 
    120 H120       33.1576   34.3816    3.8146 H         1 UNK         0.3038 
    121 H121       33.2694   33.2850    6.3766 H         1 UNK         0.0769 
    122 H122       35.4510   34.7768    4.8193 H         1 UNK         0.0811 
    123 H123       35.4259   34.5465    6.5618 H         1 UNK         0.0811 
    124 H124       34.1787   35.5134    5.7954 H         1 UNK         0.0811 
    125 H125       34.9304   32.1580    3.4934 H         1 UNK         0.3204 
    126 H126       36.0741   29.8463    5.0199 H         1 UNK         0.0748 
    127 H127       37.8689   29.7713    3.3186 H         1 UNK         0.0771 
    128 H128       37.1817   31.1527    2.4735 H         1 UNK         0.0771 
    129 H129       37.8616   31.3469    4.0886 H         1 UNK         0.0771 
    130 H130       33.3623   30.4026    3.6243 H         1 UNK         0.2980 
    131 H131       31.8610   29.4585    2.3634 H         1 UNK         0.0545 
    132 H132       34.5350   30.3331    0.7772 H         1 UNK         0.3459 
    133 H133       34.0834   29.7821   -0.8153 H         1 UNK         0.3459 
    134 H134       33.4478   26.8801    2.6386 H         1 UNK         0.0616 
    135 H135       31.7659   26.9781    2.1786 H         1 UNK         0.0616 
    136 H136       32.8284   25.9750    6.2271 H         1 UNK         0.0634 
    137 H137       33.9655   26.0754    4.9060 H         1 UNK         0.0634 
@<TRIPOS>BOND
     1    1    2 1    
     2    1   72 1    
     3    1   73 1    
     4    1   74 1    
     5    2    3 2    
     6    2    4 am   BACKBONE|DICT|INTERRES
     7    4    5 1    
     8    4   75 1    
     9    5    6 1    
    10    5   35 1    
    11    5   76 1    
    12    6    7 1    
    13    6   77 1    
    14    6   78 1    
    15    7    8 1    
    16    8    9 1    
    17    8   79 1    
    18    8   80 1    
    19    9   10 ar   
    20    9   14 ar   
    21   10   11 ar   
    22   10   81 1    
    23   11   12 ar   
    24   11   71 1    
    25   12   13 ar   
    26   12   82 1    
    27   13   14 ar   
    28   13   15 1    
    29   14   83 1    
    30   15   16 1    
    31   15   84 1    
    32   15   85 1    
    33   16   17 1    
    34   17   18 1    
    35   17   86 1    
    36   17   87 1    
    37   18   19 1    
    38   18   37 1    
    39   18   88 1    
    40   19   20 am   BACKBONE|DICT|INTERRES
    41   19   89 1    
    42   20   21 2    
    43   20   22 1    
    44   22   23 1    
    45   22   24 1    
    46   22   90 1    
    47   23   91 1    
    48   23   92 1    
    49   23   93 1    
    50   24   25 am   BACKBONE|DICT|INTERRES
    51   24   94 1    
    52   25   26 2    
    53   25   27 1    
    54   27   28 1    
    55   27   29 1    
    56   27   95 1    
    57   28   96 1    
    58   28   97 1    
    59   28   98 1    
    60   29   30 am   BACKBONE|DICT|INTERRES
    61   29   99 1    
    62   30   31 2    
    63   30   32 1    
    64   32   33 1    
    65   32   34 1    
    66   32  100 1    
    67   33  101 1    
    68   33  102 1    
    69   33  103 1    
    70   34   35 am   BACKBONE|DICT|INTERRES
    71   34  104 1    
    72   35   36 2    
    73   37   38 2    
    74   37   39 am   BACKBONE|DICT|INTERRES
    75   39   40 1    
    76   39  105 1    
    77   40   41 1    
    78   40   42 1    
    79   40  106 1    
    80   41  107 1    
    81   41  108 1    
    82   41  109 1    
    83   42   43 2    
    84   42   44 am   BACKBONE|DICT|INTERRES
    85   44   45 1    
    86   44  110 1    
    87   45   46 1    
    88   45   47 1    
    89   45  111 1    
    90   46  112 1    
    91   46  113 1    
    92   46  114 1    
    93   47   48 2    
    94   47   49 am   BACKBONE|DICT|INTERRES
    95   49   50 1    
    96   49  115 1    
    97   50   51 1    
    98   50   52 1    
    99   50  116 1    
   100   51  117 1    
   101   51  118 1    
   102   51  119 1    
   103   52   53 2    
   104   52   54 am   BACKBONE|DICT|INTERRES
   105   54   55 1    
   106   54  120 1    
   107   55   56 1    
   108   55   57 1    
   109   55  121 1    
   110   56  122 1    
   111   56  123 1    
   112   56  124 1    
   113   57   58 2    
   114   57   59 am   BACKBONE|DICT|INTERRES
   115   59   60 1    
   116   59  125 1    
   117   60   61 1    
   118   60   62 1    
   119   60  126 1    
   120   61  127 1    
   121   61  128 1    
   122   61  129 1    
   123   62   63 2    
   124   62   64 am   BACKBONE|DICT|INTERRES
   125   64   65 1    
   126   64  130 1    
   127   65   66 1    
   128   65   69 1    
   129   65  131 1    
   130   66   67 am   BACKBONE|DICT|INTERRES
   131   66   68 2    
   132   67  132 1    
   133   67  133 1    
   134   69   70 1    
   135   69  134 1    
   136   69  135 1    
   137   70   71 1    
   138   71  136 1    
   139   71  137 1    
@<TRIPOS>SUBSTRUCTURE
     1 UNK         1 GROUP             0       ****    0 ROOT    
