@<TRIPOS>MOLECULE
3R136
137   139    1
SMALL
USER_CHARGES


@<TRIPOS>ATOM
      1 CA         29.5563   22.7314   -1.2467 C.3       0 UNK        -0.1979 
      2 C          28.7854   23.5467   -0.2215 C.2       0 UNK         0.4864 
      3 O          28.3827   24.6728   -0.5165 O.2       0 UNK        -0.5359 
      4 N          28.5814   23.0000    0.9830 N.am      1 UNK        -0.4318 
      5 CA         27.8349   23.6299    2.0784 C.3       1 UNK         0.0824 
      6 C6         28.0035   22.8716    3.4214 C.3       12 UNK        -0.0944 
      7 S7         29.7401   22.4576    3.8340 S.3       12 UNK        -0.2672 
      8 C8         30.3598   23.9984    4.5872 C.3       12 UNK         0.0333 
      9 C9         31.4965   24.6174    3.7795 C.ar      12 UNK        -0.0807 
     10 C10        32.7661   24.7896    4.3404 C.ar      12 UNK        -0.0894 
     11 C11        33.7889   25.4052    3.6085 C.ar      12 UNK        -0.0804 
     12 C12        33.5325   25.8616    2.3096 C.ar      12 UNK        -0.0824 
     13 C13        32.2707   25.6838    1.7341 C.ar      12 UNK        -0.0762 
     14 C14        31.2716   25.0489    2.4715 C.ar      12 UNK        -0.0782 
     15 C15        31.9806   26.1544    0.3136 C.3       12 UNK         0.0230 
     16 S16        31.4193   27.8874    0.2600 S.3       12 UNK        -0.2608 
     17 C17        29.7493   27.8049    0.9973 C.3       12 UNK        -0.0989 
     18 CA         28.6429   28.2908    0.0298 C.3       5 UNK         0.0716 
     19 N          28.4700   27.3880   -1.1044 N.am      5 UNK        -0.4135 
     20 C          28.0455   27.7552   -2.3191 C.2       4 UNK         0.5031 
     21 O          27.8303   28.9232   -2.6466 O.2       4 UNK        -0.5229 
     22 CA         27.7743   26.6267   -3.3194 C.3       4 UNK         0.0329 
     23 CB         29.0827   25.9426   -3.7536 C.3       4 UNK        -0.2001 
     24 N          26.8724   25.6387   -2.7248 N.am      4 UNK        -0.4303 
     25 C          25.6673   25.3098   -3.2060 C.2       3 UNK         0.5044 
     26 O          25.1801   25.7849   -4.2329 O.2       3 UNK        -0.5152 
     27 CA         24.8648   24.2618   -2.4155 C.3       3 UNK         0.0319 
     28 CB         25.3481   22.8427   -2.7564 C.3       3 UNK        -0.2001 
     29 N          24.9115   24.4502   -0.9645 N.am      3 UNK        -0.4354 
     30 C          24.3824   25.4801   -0.2905 C.2       2 UNK         0.4964 
     31 O          23.7972   26.4195   -0.8289 O.2       2 UNK        -0.5047 
     32 CA         24.5224   25.4707    1.2444 C.3       2 UNK         0.0288 
     33 CB         23.3575   24.7147    1.9143 C.3       2 UNK        -0.2113 
     34 N          25.8354   25.0124    1.7214 N.am      2 UNK        -0.4145 
     35 C          26.3535   23.7757    1.6831 C.2       1 UNK         0.5006 
     36 O          25.7383   22.7822    1.2884 O.2       1 UNK        -0.5103 
     37 C          27.2778   28.4118    0.7284 C.2       5 UNK         0.5055 
     38 O          27.0002   27.6614    1.6677 O.2       5 UNK        -0.5220 
     39 N          26.4340   29.3210    0.2183 N.am      6 UNK        -0.4450 
     40 CA         25.1004   29.6301    0.7489 C.3       6 UNK         0.0367 
     41 CB         24.3503   30.5235   -0.2513 C.3       6 UNK        -0.1929 
     42 C          25.1402   30.2885    2.1405 C.2       6 UNK         0.5070 
     43 O          24.2086   30.1112    2.9255 O.2       6 UNK        -0.5237 
     44 N          26.2296   31.0102    2.4199 N.am      7 UNK        -0.4739 
     45 CA         26.6324   31.4874    3.7383 C.3       7 UNK         0.0276 
     46 CB         26.7022   33.0232    3.7197 C.3       7 UNK        -0.1927 
     47 C          28.0105   30.8818    4.0378 C.2       7 UNK         0.5013 
     48 O          28.7321   30.5290    3.1000 O.2       7 UNK        -0.5193 
     49 N          28.3500   30.7668    5.3281 N.am      8 UNK        -0.4253 
     50 CA         29.5998   30.1709    5.8087 C.3       8 UNK         0.0242 
     51 CB         29.5780   30.1054    7.3450 C.3       8 UNK        -0.2000 
     52 C          30.8444   30.9296    5.3146 C.2       8 UNK         0.4948 
     53 O          30.9276   32.1478    5.4924 O.2       8 UNK        -0.5275 
     54 N          31.7816   30.1882    4.7148 N.am      9 UNK        -0.4246 
     55 CA         33.0734   30.6881    4.2477 C.3       9 UNK         0.0261 
     56 CB         33.5731   29.7625    3.1237 C.3       9 UNK        -0.1959 
     57 C          34.0930   30.7538    5.3979 C.2       9 UNK         0.5033 
     58 O          33.8740   30.1607    6.4578 O.2       9 UNK        -0.5390 
     59 N          35.2097   31.4540    5.1552 N.am      10 UNK        -0.4215 
     60 CA         36.3521   31.5263    6.0738 C.3       10 UNK         0.0240 
     61 CB         37.2934   32.6605    5.6357 C.3       10 UNK        -0.1982 
     62 C          37.1208   30.1956    6.1808 C.2       10 UNK         0.4970 
     63 O          37.6424   29.8894    7.2535 O.2       10 UNK        -0.4916 
     64 N          37.1665   29.4403    5.0729 N.am      11 UNK        -0.4279 
     65 CA         37.7600   28.0954    4.9484 C.3       11 UNK         0.1003 
     66 C          39.3070   28.0347    5.1423 C.2       11 UNK         0.5709 
     67 N          40.0278   29.1460    5.0499 N.am      11 UNK        -0.7358 
     68 O          39.8722   26.9619    5.3431 O.2       11 UNK        -0.4999 
     69 C69        37.0016   27.0197    5.7815 C.3       12 UNK        -0.0954 
     70 S70        35.2202   26.9542    5.3900 S.3       12 UNK        -0.2268 
     71 C71        35.1727   25.5663    4.2194 C.3       12 UNK         0.0203 
     72 H72        28.9722   22.6294   -2.1608 H         1 UNK         0.0888 
     73 H73        30.4918   23.2318   -1.4946 H         1 UNK         0.0888 
     74 H74        29.7906   21.7325   -0.8794 H         1 UNK         0.0888 
     75 H75        28.9252   22.0702    1.1761 H         1 UNK         0.3017 
     76 H76        28.2230   24.6385    2.2182 H         1 UNK         0.0873 
     77 H77        27.4538   21.9285    3.3908 H         1 UNK         0.0745 
     78 H78        27.5658   23.4432    4.2420 H         1 UNK         0.0745 
     79 H79        30.6884   23.7765    5.6036 H         1 UNK         0.0705 
     80 H80        29.5541   24.7277    4.6811 H         1 UNK         0.0705 
     81 H81        32.9610   24.4539    5.3499 H         1 UNK         0.1334 
     82 H82        34.3151   26.3483    1.7436 H         1 UNK         0.1417 
     83 H83        30.3113   24.8878    2.0190 H         1 UNK         0.1562 
     84 H84        31.2320   25.5172   -0.1594 H         1 UNK         0.0748 
     85 H85        32.8823   26.0609   -0.2934 H         1 UNK         0.0748 
     86 H86        29.7659   28.4180    1.8999 H         1 UNK         0.0940 
     87 H87        29.5256   26.7937    1.3280 H         1 UNK         0.0940 
     88 H88        28.9293   29.2829   -0.3269 H         1 UNK         0.0703 
     89 H89        28.5635   26.3948   -0.8974 H         1 UNK         0.3081 
     90 H90        27.3209   27.0783   -4.2043 H         1 UNK         0.0719 
     91 H91        29.7733   26.6649   -4.1909 H         1 UNK         0.0809 
     92 H92        29.5952   25.4664   -2.9171 H         1 UNK         0.0809 
     93 H93        28.8944   25.1773   -4.5065 H         1 UNK         0.0809 
     94 H94        27.1934   25.2010   -1.8649 H         1 UNK         0.2990 
     95 H95        23.8206   24.3469   -2.7241 H         1 UNK         0.0690 
     96 H96        24.7213   22.0865   -2.2833 H         1 UNK         0.0788 
     97 H97        26.3758   22.6764   -2.4317 H         1 UNK         0.0788 
     98 H98        25.3122   22.6653   -3.8322 H         1 UNK         0.0788 
     99 H99        25.3357   23.7099   -0.4148 H         1 UNK         0.2993 
    100 H100       24.4520   26.5094    1.5677 H         1 UNK         0.0949 
    101 H101       23.3085   23.6712    1.6025 H         1 UNK         0.0767 
    102 H102       23.4425   24.7380    3.0008 H         1 UNK         0.0767 
    103 H103       22.4019   25.1716    1.6539 H         1 UNK         0.0767 
    104 H104       26.4494   25.7820    1.9772 H         1 UNK         0.3013 
    105 H105       26.7287   29.8380   -0.6000 H         1 UNK         0.3121 
    106 H106       24.5491   28.6941    0.8432 H         1 UNK         0.0774 
    107 H107       23.3452   30.7500    0.1072 H         1 UNK         0.0815 
    108 H108       24.8620   31.4737   -0.4094 H         1 UNK         0.0815 
    109 H109       24.2437   30.0316   -1.2185 H         1 UNK         0.0815 
    110 H110       26.9727   31.0201    1.7340 H         1 UNK         0.2987 
    111 H111       25.9256   31.1587    4.5037 H         1 UNK         0.0949 
    112 H112       25.7336   33.4593    3.4749 H         1 UNK         0.0806 
    113 H113       26.9970   33.4144    4.6943 H         1 UNK         0.0806 
    114 H114       27.4268   33.3862    2.9894 H         1 UNK         0.0806 
    115 H115       27.7171   31.1162    6.0329 H         1 UNK         0.3010 
    116 H116       29.6373   29.1480    5.4270 H         1 UNK         0.0829 
    117 H117       28.7434   29.5049    7.7074 H         1 UNK         0.0813 
    118 H118       30.4933   29.6511    7.7276 H         1 UNK         0.0813 
    119 H119       29.4981   31.0983    7.7897 H         1 UNK         0.0813 
    120 H120       31.6463   29.1899    4.6534 H         1 UNK         0.3038 
    121 H121       32.9421   31.6941    3.8428 H         1 UNK         0.0769 
    122 H122       34.5237   30.1053    2.7145 H         1 UNK         0.0811 
    123 H123       32.8634   29.7301    2.2968 H         1 UNK         0.0811 
    124 H124       33.7177   28.7404    3.4750 H         1 UNK         0.0811 
    125 H125       35.3042   31.9323    4.2702 H         1 UNK         0.3204 
    126 H126       35.9716   31.7663    7.0692 H         1 UNK         0.0748 
    127 H127       38.1418   32.7474    6.3163 H         1 UNK         0.0771 
    128 H128       37.6940   32.4938    4.6350 H         1 UNK         0.0771 
    129 H129       36.7814   33.6231    5.6367 H         1 UNK         0.0771 
    130 H130       36.7232   29.7938    4.2394 H         1 UNK         0.2980 
    131 H131       37.6224   27.8284    3.9002 H         1 UNK         0.0545 
    132 H132       41.0279   29.0961    5.1645 H         1 UNK         0.3459 
    133 H133       39.5820   30.0319    4.8757 H         1 UNK         0.3459 
    134 H134       37.4278   26.0284    5.6183 H         1 UNK         0.0616 
    135 H135       37.1085   27.2193    6.8486 H         1 UNK         0.0616 
    136 H136       35.4578   24.6480    4.7350 H         1 UNK         0.0634 
    137 H137       35.9170   25.7286    3.4381 H         1 UNK         0.0634 
@<TRIPOS>BOND
     1    1    2 1    
     2    1   72 1    
     3    1   73 1    
     4    1   74 1    
     5    2    3 2    
     6    2    4 am   BACKBONE|DICT|INTERRES
     7    4    5 1    
     8    4   75 1    
     9    5    6 1    
    10    5   35 1    
    11    5   76 1    
    12    6    7 1    
    13    6   77 1    
    14    6   78 1    
    15    7    8 1    
    16    8    9 1    
    17    8   79 1    
    18    8   80 1    
    19    9   10 ar   
    20    9   14 ar   
    21   10   11 ar   
    22   10   81 1    
    23   11   12 ar   
    24   11   71 1    
    25   12   13 ar   
    26   12   82 1    
    27   13   14 ar   
    28   13   15 1    
    29   14   83 1    
    30   15   16 1    
    31   15   84 1    
    32   15   85 1    
    33   16   17 1    
    34   17   18 1    
    35   17   86 1    
    36   17   87 1    
    37   18   19 1    
    38   18   37 1    
    39   18   88 1    
    40   19   20 am   BACKBONE|DICT|INTERRES
    41   19   89 1    
    42   20   21 2    
    43   20   22 1    
    44   22   23 1    
    45   22   24 1    
    46   22   90 1    
    47   23   91 1    
    48   23   92 1    
    49   23   93 1    
    50   24   25 am   BACKBONE|DICT|INTERRES
    51   24   94 1    
    52   25   26 2    
    53   25   27 1    
    54   27   28 1    
    55   27   29 1    
    56   27   95 1    
    57   28   96 1    
    58   28   97 1    
    59   28   98 1    
    60   29   30 am   BACKBONE|DICT|INTERRES
    61   29   99 1    
    62   30   31 2    
    63   30   32 1    
    64   32   33 1    
    65   32   34 1    
    66   32  100 1    
    67   33  101 1    
    68   33  102 1    
    69   33  103 1    
    70   34   35 am   BACKBONE|DICT|INTERRES
    71   34  104 1    
    72   35   36 2    
    73   37   38 2    
    74   37   39 am   BACKBONE|DICT|INTERRES
    75   39   40 1    
    76   39  105 1    
    77   40   41 1    
    78   40   42 1    
    79   40  106 1    
    80   41  107 1    
    81   41  108 1    
    82   41  109 1    
    83   42   43 2    
    84   42   44 am   BACKBONE|DICT|INTERRES
    85   44   45 1    
    86   44  110 1    
    87   45   46 1    
    88   45   47 1    
    89   45  111 1    
    90   46  112 1    
    91   46  113 1    
    92   46  114 1    
    93   47   48 2    
    94   47   49 am   BACKBONE|DICT|INTERRES
    95   49   50 1    
    96   49  115 1    
    97   50   51 1    
    98   50   52 1    
    99   50  116 1    
   100   51  117 1    
   101   51  118 1    
   102   51  119 1    
   103   52   53 2    
   104   52   54 am   BACKBONE|DICT|INTERRES
   105   54   55 1    
   106   54  120 1    
   107   55   56 1    
   108   55   57 1    
   109   55  121 1    
   110   56  122 1    
   111   56  123 1    
   112   56  124 1    
   113   57   58 2    
   114   57   59 am   BACKBONE|DICT|INTERRES
   115   59   60 1    
   116   59  125 1    
   117   60   61 1    
   118   60   62 1    
   119   60  126 1    
   120   61  127 1    
   121   61  128 1    
   122   61  129 1    
   123   62   63 2    
   124   62   64 am   BACKBONE|DICT|INTERRES
   125   64   65 1    
   126   64  130 1    
   127   65   66 1    
   128   65   69 1    
   129   65  131 1    
   130   66   67 am   BACKBONE|DICT|INTERRES
   131   66   68 2    
   132   67  132 1    
   133   67  133 1    
   134   69   70 1    
   135   69  134 1    
   136   69  135 1    
   137   70   71 1    
   138   71  136 1    
   139   71  137 1    
@<TRIPOS>SUBSTRUCTURE
     1 UNK         1 GROUP             0       ****    0 ROOT    
