@<TRIPOS>MOLECULE
3R136
137   139    1
SMALL
USER_CHARGES


@<TRIPOS>ATOM
      1 CA         31.3875   25.9118   -4.0335 C.3       0 UNK        -0.1979 
      2 C          30.3272   26.0326   -2.9502 C.2       0 UNK         0.4864 
      3 O          29.7283   27.0967   -2.7932 O.2       0 UNK        -0.5359 
      4 N          30.0691   24.9454   -2.2120 N.am      1 UNK        -0.4318 
      5 CA         29.1518   24.8696   -1.0636 C.3       1 UNK         0.0824 
      6 C6         29.5177   23.6939   -0.1070 C.3       12 UNK        -0.0944 
      7 S7         31.3068   23.5560    0.2457 S.3       12 UNK        -0.2672 
      8 C8         31.3578   22.7332    1.8768 C.3       12 UNK         0.0333 
      9 C9         31.7064   23.6817    3.0218 C.ar      12 UNK        -0.0807 
     10 C10        32.7603   24.5948    2.8959 C.ar      12 UNK        -0.0894 
     11 C11        33.0730   25.4756    3.9347 C.ar      12 UNK        -0.0804 
     12 C12        32.3517   25.4091    5.1283 C.ar      12 UNK        -0.0824 
     13 C13        31.3272   24.4734    5.2888 C.ar      12 UNK        -0.0762 
     14 C14        31.0021   23.6179    4.2296 C.ar      12 UNK        -0.0782 
     15 C15        30.5827   24.3872    6.6133 C.3       12 UNK         0.0230 
     16 S16        28.8531   24.9303    6.4714 S.3       12 UNK        -0.2608 
     17 C17        29.0281   26.6741    5.9469 C.3       12 UNK        -0.0989 
     18 CA         28.8933   26.8714    4.4132 C.3       5 UNK         0.0716 
     19 N          27.7715   26.1083    3.8640 N.am      5 UNK        -0.4135 
     20 C          27.4499   25.9793    2.5734 C.2       4 UNK         0.5031 
     21 O          28.0222   26.5776    1.6577 O.2       4 UNK        -0.5229 
     22 CA         26.2899   25.0159    2.2511 C.3       4 UNK         0.0329 
     23 CB         25.4433   24.5943    3.4754 C.3       4 UNK        -0.2001 
     24 N          25.4340   25.5465    1.1907 N.am      4 UNK        -0.4303 
     25 C          24.7569   26.7049    1.2010 C.2       3 UNK         0.5044 
     26 O          24.7116   27.4701    2.1662 O.2       3 UNK        -0.5152 
     27 CA         24.0648   27.0812   -0.1181 C.3       3 UNK         0.0319 
     28 CB         23.6089   28.5525   -0.1566 C.3       3 UNK        -0.2001 
     29 N          24.9935   26.8210   -1.2181 N.am      3 UNK        -0.4354 
     30 C          24.7836   25.9839   -2.2390 C.2       2 UNK         0.4964 
     31 O          23.7145   25.4145   -2.4591 O.2       2 UNK        -0.5047 
     32 CA         25.9893   25.7118   -3.1547 C.3       2 UNK         0.0288 
     33 CB         26.0451   26.7458   -4.2909 C.3       2 UNK        -0.2113 
     34 N          27.2864   25.6864   -2.4651 N.am      2 UNK        -0.4145 
     35 C          27.6643   24.8260   -1.5069 C.2       1 UNK         0.5006 
     36 O          26.8933   24.0059   -1.0039 O.2       1 UNK        -0.5103 
     37 C          28.8415   28.3734    4.0692 C.2       5 UNK         0.5055 
     38 O          29.8965   28.9978    3.9602 O.2       5 UNK        -0.5220 
     39 N          27.6304   28.9269    3.9015 N.am      6 UNK        -0.4450 
     40 CA         27.3947   30.3339    3.5719 C.3       6 UNK         0.0367 
     41 CB         25.8955   30.6506    3.6930 C.3       6 UNK        -0.1929 
     42 C          27.9196   30.7175    2.1800 C.2       6 UNK         0.5070 
     43 O          28.5640   31.7572    2.0444 O.2       6 UNK        -0.5237 
     44 N          27.6744   29.8577    1.1801 N.am      7 UNK        -0.4739 
     45 CA         28.1648   30.0393   -0.1922 C.3       7 UNK         0.0276 
     46 CB         27.4516   29.0606   -1.1338 C.3       7 UNK        -0.1927 
     47 C          29.6870   29.8664   -0.3019 C.2       7 UNK         0.5013 
     48 O          30.3245   30.5572   -1.0967 O.2       7 UNK        -0.5193 
     49 N          30.2369   28.9734    0.5293 N.am      8 UNK        -0.4253 
     50 CA         31.6695   28.7078    0.6453 C.3       8 UNK         0.0242 
     51 CB         31.8471   27.2691    1.1394 C.3       8 UNK        -0.2000 
     52 C          32.4161   29.7111    1.5505 C.2       8 UNK         0.4948 
     53 O          33.6269   29.5656    1.7217 O.2       8 UNK        -0.5275 
     54 N          31.6991   30.7023    2.1042 N.am      9 UNK        -0.4246 
     55 CA         32.1825   31.7958    2.9543 C.3       9 UNK         0.0261 
     56 CB         33.1249   32.7302    2.1651 C.3       9 UNK        -0.1959 
     57 C          32.7833   31.3234    4.2929 C.2       9 UNK         0.5033 
     58 O          33.7913   31.8740    4.7414 O.2       9 UNK        -0.5390 
     59 N          32.1470   30.3207    4.9154 N.am      10 UNK        -0.4215 
     60 CA         32.3917   29.7439    6.2472 C.3       10 UNK         0.0240 
     61 CB         32.1734   30.7934    7.3538 C.3       10 UNK        -0.1982 
     62 C          33.7339   29.0137    6.4440 C.2       10 UNK         0.4970 
     63 O          33.7508   28.0279    7.1791 O.2       10 UNK        -0.4916 
     64 N          34.8079   29.5028    5.8126 N.am      11 UNK        -0.4279 
     65 CA         36.1937   28.9937    5.7422 C.3       11 UNK         0.1003 
     66 C          36.9435   28.6592    7.0702 C.2       11 UNK         0.5709 
     67 N          36.3201   28.7232    8.2377 N.am      11 UNK        -0.7358 
     68 O          38.1415   28.3852    7.0431 O.2       11 UNK        -0.4999 
     69 C69        36.3983   27.9216    4.6315 C.3       12 UNK        -0.0954 
     70 S70        35.5368   26.3353    4.9044 S.3       12 UNK        -0.2268 
     71 C71        34.1477   26.5365    3.7489 C.3       12 UNK         0.0203 
     72 H72        32.1829   26.6357   -3.8592 H         1 UNK         0.0888 
     73 H73        31.8330   24.9175   -4.0587 H         1 UNK         0.0888 
     74 H74        30.9499   26.1139   -5.0107 H         1 UNK         0.0888 
     75 H75        30.5831   24.0956   -2.3964 H         1 UNK         0.3017 
     76 H76        29.2700   25.7946   -0.4967 H         1 UNK         0.0873 
     77 H77        29.1985   22.7389   -0.5290 H         1 UNK         0.0745 
     78 H78        28.9836   23.8075    0.8374 H         1 UNK         0.0745 
     79 H79        32.1172   21.9512    1.8417 H         1 UNK         0.0705 
     80 H80        30.4087   22.2277    2.0613 H         1 UNK         0.0705 
     81 H81        33.3199   24.6398    1.9719 H         1 UNK         0.1334 
     82 H82        32.5961   26.0849    5.9356 H         1 UNK         0.1417 
     83 H83        30.2011   22.9015    4.3522 H         1 UNK         0.1562 
     84 H84        31.0810   24.9796    7.3826 H         1 UNK         0.0748 
     85 H85        30.5999   23.3549    6.9657 H         1 UNK         0.0748 
     86 H86        29.9845   27.0646    6.2994 H         1 UNK         0.0940 
     87 H87        28.2604   27.2438    6.4749 H         1 UNK         0.0940 
     88 H88        29.7933   26.4758    3.9390 H         1 UNK         0.0703 
     89 H89        27.2522   25.5677    4.5405 H         1 UNK         0.3081 
     90 H90        26.7510   24.1150    1.8449 H         1 UNK         0.0719 
     91 H91        25.0053   25.4517    3.9883 H         1 UNK         0.0809 
     92 H92        24.6240   23.9409    3.1749 H         1 UNK         0.0809 
     93 H93        26.0369   24.0359    4.2004 H         1 UNK         0.0809 
     94 H94        25.4637   25.0227    0.3238 H         1 UNK         0.2990 
     95 H95        23.1805   26.4464   -0.2035 H         1 UNK         0.0690 
     96 H96        23.1833   28.8111   -1.1262 H         1 UNK         0.0788 
     97 H97        24.4291   29.2411    0.0467 H         1 UNK         0.0788 
     98 H98        22.8400   28.7383    0.5943 H         1 UNK         0.0788 
     99 H99        25.9173   27.2155   -1.1186 H         1 UNK         0.2993 
    100 H100       25.8393   24.7247   -3.5974 H         1 UNK         0.0949 
    101 H101       26.8311   26.5054   -5.0073 H         1 UNK         0.0767 
    102 H102       25.1038   26.7735   -4.8419 H         1 UNK         0.0767 
    103 H103       26.2326   27.7517   -3.9130 H         1 UNK         0.0767 
    104 H104       28.0004   26.3306   -2.7981 H         1 UNK         0.3013 
    105 H105       26.8152   28.3346    3.9788 H         1 UNK         0.3121 
    106 H106       27.9305   30.9410    4.3050 H         1 UNK         0.0774 
    107 H107       25.7002   31.7006    3.4710 H         1 UNK         0.0815 
    108 H108       25.2972   30.0552    3.0020 H         1 UNK         0.0815 
    109 H109       25.5298   30.4610    4.7022 H         1 UNK         0.0815 
    110 H110       27.1775   29.0020    1.3889 H         1 UNK         0.2987 
    111 H111       27.9273   31.0569   -0.5111 H         1 UNK         0.0949 
    112 H112       27.5810   28.0307   -0.8019 H         1 UNK         0.0806 
    113 H113       26.3884   29.2839   -1.1997 H         1 UNK         0.0806 
    114 H114       27.8540   29.1294   -2.1459 H         1 UNK         0.0806 
    115 H115       29.6248   28.4508    1.1425 H         1 UNK         0.3010 
    116 H116       32.1179   28.7782   -0.3480 H         1 UNK         0.0829 
    117 H117       31.3225   26.5613    0.4993 H         1 UNK         0.0813 
    118 H118       32.8990   26.9869    1.1281 H         1 UNK         0.0813 
    119 H119       31.4732   27.1448    2.1560 H         1 UNK         0.0813 
    120 H120       30.7029   30.7086    1.9264 H         1 UNK         0.3038 
    121 H121       31.2973   32.3767    3.2181 H         1 UNK         0.0769 
    122 H122       33.3732   33.6182    2.7477 H         1 UNK         0.0811 
    123 H123       32.6614   33.0710    1.2393 H         1 UNK         0.0811 
    124 H124       34.0635   32.2373    1.9098 H         1 UNK         0.0811 
    125 H125       31.3489   29.9066    4.4299 H         1 UNK         0.3204 
    126 H126       31.6181   28.9840    6.3672 H         1 UNK         0.0748 
    127 H127       32.2551   30.3404    8.3428 H         1 UNK         0.0771 
    128 H128       32.9087   31.5972    7.3042 H         1 UNK         0.0771 
    129 H129       31.1819   31.2410    7.2844 H         1 UNK         0.0771 
    130 H130       34.6498   30.3724    5.3076 H         1 UNK         0.2980 
    131 H131       36.7377   29.8706    5.3893 H         1 UNK         0.0545 
    132 H132       36.8254   28.5229    9.0859 H         1 UNK         0.3459 
    133 H133       35.3141   28.8194    8.2485 H         1 UNK         0.3459 
    134 H134       36.0846   28.3354    3.6717 H         1 UNK         0.0616 
    135 H135       37.4606   27.7038    4.5086 H         1 UNK         0.0616 
    136 H136       34.5440   26.5170    2.7331 H         1 UNK         0.0634 
    137 H137       33.6940   27.5192    3.8833 H         1 UNK         0.0634 
@<TRIPOS>BOND
     1    1    2 1    
     2    1   72 1    
     3    1   73 1    
     4    1   74 1    
     5    2    3 2    
     6    2    4 am   BACKBONE|DICT|INTERRES
     7    4    5 1    
     8    4   75 1    
     9    5    6 1    
    10    5   35 1    
    11    5   76 1    
    12    6    7 1    
    13    6   77 1    
    14    6   78 1    
    15    7    8 1    
    16    8    9 1    
    17    8   79 1    
    18    8   80 1    
    19    9   10 ar   
    20    9   14 ar   
    21   10   11 ar   
    22   10   81 1    
    23   11   12 ar   
    24   11   71 1    
    25   12   13 ar   
    26   12   82 1    
    27   13   14 ar   
    28   13   15 1    
    29   14   83 1    
    30   15   16 1    
    31   15   84 1    
    32   15   85 1    
    33   16   17 1    
    34   17   18 1    
    35   17   86 1    
    36   17   87 1    
    37   18   19 1    
    38   18   37 1    
    39   18   88 1    
    40   19   20 am   BACKBONE|DICT|INTERRES
    41   19   89 1    
    42   20   21 2    
    43   20   22 1    
    44   22   23 1    
    45   22   24 1    
    46   22   90 1    
    47   23   91 1    
    48   23   92 1    
    49   23   93 1    
    50   24   25 am   BACKBONE|DICT|INTERRES
    51   24   94 1    
    52   25   26 2    
    53   25   27 1    
    54   27   28 1    
    55   27   29 1    
    56   27   95 1    
    57   28   96 1    
    58   28   97 1    
    59   28   98 1    
    60   29   30 am   BACKBONE|DICT|INTERRES
    61   29   99 1    
    62   30   31 2    
    63   30   32 1    
    64   32   33 1    
    65   32   34 1    
    66   32  100 1    
    67   33  101 1    
    68   33  102 1    
    69   33  103 1    
    70   34   35 am   BACKBONE|DICT|INTERRES
    71   34  104 1    
    72   35   36 2    
    73   37   38 2    
    74   37   39 am   BACKBONE|DICT|INTERRES
    75   39   40 1    
    76   39  105 1    
    77   40   41 1    
    78   40   42 1    
    79   40  106 1    
    80   41  107 1    
    81   41  108 1    
    82   41  109 1    
    83   42   43 2    
    84   42   44 am   BACKBONE|DICT|INTERRES
    85   44   45 1    
    86   44  110 1    
    87   45   46 1    
    88   45   47 1    
    89   45  111 1    
    90   46  112 1    
    91   46  113 1    
    92   46  114 1    
    93   47   48 2    
    94   47   49 am   BACKBONE|DICT|INTERRES
    95   49   50 1    
    96   49  115 1    
    97   50   51 1    
    98   50   52 1    
    99   50  116 1    
   100   51  117 1    
   101   51  118 1    
   102   51  119 1    
   103   52   53 2    
   104   52   54 am   BACKBONE|DICT|INTERRES
   105   54   55 1    
   106   54  120 1    
   107   55   56 1    
   108   55   57 1    
   109   55  121 1    
   110   56  122 1    
   111   56  123 1    
   112   56  124 1    
   113   57   58 2    
   114   57   59 am   BACKBONE|DICT|INTERRES
   115   59   60 1    
   116   59  125 1    
   117   60   61 1    
   118   60   62 1    
   119   60  126 1    
   120   61  127 1    
   121   61  128 1    
   122   61  129 1    
   123   62   63 2    
   124   62   64 am   BACKBONE|DICT|INTERRES
   125   64   65 1    
   126   64  130 1    
   127   65   66 1    
   128   65   69 1    
   129   65  131 1    
   130   66   67 am   BACKBONE|DICT|INTERRES
   131   66   68 2    
   132   67  132 1    
   133   67  133 1    
   134   69   70 1    
   135   69  134 1    
   136   69  135 1    
   137   70   71 1    
   138   71  136 1    
   139   71  137 1    
@<TRIPOS>SUBSTRUCTURE
     1 UNK         1 GROUP             0       ****    0 ROOT    
