@<TRIPOS>MOLECULE
3R136
137   139    1
SMALL
USER_CHARGES


@<TRIPOS>ATOM
      1 CA         25.0631   26.1159    5.1648 C.3       0 UNK        -0.1979 
      2 C          25.4624   24.7248    4.6950 C.2       0 UNK         0.4864 
      3 O          24.6008   23.9500    4.2785 O.2       0 UNK        -0.5359 
      4 N          26.7623   24.4038    4.7593 N.am      1 UNK        -0.4318 
      5 CA         27.3464   23.1211    4.3453 C.3       1 UNK         0.0824 
      6 C6         28.8120   22.9739    4.8298 C.3       12 UNK        -0.0944 
      7 S7         29.9135   24.3508    4.3425 S.3       12 UNK        -0.2672 
      8 C8         30.8137   23.5924    2.9555 C.3       12 UNK         0.0333 
      9 C9         31.8797   24.5185    2.3884 C.ar      12 UNK        -0.0807 
     10 C10        33.2295   24.1648    2.4656 C.ar      12 UNK        -0.0894 
     11 C11        34.2167   24.9866    1.9126 C.ar      12 UNK        -0.0804 
     12 C12        33.8397   26.1627    1.2561 C.ar      12 UNK        -0.0824 
     13 C13        32.4953   26.5448    1.2004 C.ar      12 UNK        -0.0762 
     14 C14        31.5193   25.7166    1.7648 C.ar      12 UNK        -0.0782 
     15 C15        32.1083   27.8702    0.5631 C.3       12 UNK         0.0230 
     16 S16        31.7884   27.7096   -1.2211 S.3       12 UNK        -0.2608 
     17 C17        30.0423   27.1770   -1.2447 C.3       12 UNK        -0.0989 
     18 CA         29.0855   28.2486   -1.8316 C.3       5 UNK         0.0716 
     19 N          27.8580   27.6129   -2.3036 N.am      5 UNK        -0.4135 
     20 C          27.2676   27.8269   -3.4858 C.2       4 UNK         0.5031 
     21 O          27.7197   28.5817   -4.3484 O.2       4 UNK        -0.5229 
     22 CA         25.9632   27.0589   -3.7829 C.3       4 UNK         0.0329 
     23 CB         26.2189   25.9499   -4.8173 C.3       4 UNK        -0.2001 
     24 N          25.3548   26.4610   -2.5919 N.am      4 UNK        -0.4303 
     25 C          24.6627   27.1371   -1.6648 C.2       3 UNK         0.5044 
     26 O          24.3673   28.3281   -1.7669 O.2       3 UNK        -0.5152 
     27 CA         24.2342   26.3601   -0.4040 C.3       3 UNK         0.0319 
     28 CB         22.7539   25.9561   -0.4991 C.3       3 UNK        -0.2001 
     29 N          25.0397   25.1663   -0.1079 N.am      3 UNK        -0.4354 
     30 C          26.3482   25.1753    0.1797 C.2       2 UNK         0.4964 
     31 O          27.0472   26.1879    0.1666 O.2       2 UNK        -0.5047 
     32 CA         26.9853   23.8427    0.5713 C.3       2 UNK         0.0288 
     33 CB         28.3176   23.6056   -0.1659 C.3       2 UNK        -0.2113 
     34 N          27.2024   23.8896    2.0113 N.am      2 UNK        -0.4145 
     35 C          27.2113   22.8332    2.8328 C.2       1 UNK         0.5006 
     36 O          27.1082   21.6671    2.4472 O.2       1 UNK        -0.5103 
     37 C          28.7202   29.3255   -0.7901 C.2       5 UNK         0.5055 
     38 O          27.6114   29.3234   -0.2475 O.2       5 UNK        -0.5220 
     39 N          29.6775   30.2090   -0.4807 N.am      6 UNK        -0.4450 
     40 CA         29.5938   31.2055    0.5924 C.3       6 UNK         0.0367 
     41 CB         30.6102   32.3280    0.3127 C.3       6 UNK        -0.1929 
     42 C          29.8036   30.5546    1.9752 C.2       6 UNK         0.5070 
     43 O          30.7452   30.8997    2.6889 O.2       6 UNK        -0.5237 
     44 N          28.9359   29.5941    2.3214 N.am      7 UNK        -0.4739 
     45 CA         29.0269   28.7256    3.5027 C.3       7 UNK         0.0276 
     46 CB         27.9524   27.6341    3.4050 C.3       7 UNK        -0.1927 
     47 C          28.9627   29.4464    4.8630 C.2       7 UNK         0.5013 
     48 O          29.3191   28.8450    5.8758 O.2       7 UNK        -0.5193 
     49 N          28.5678   30.7275    4.8674 N.am      8 UNK        -0.4253 
     50 CA         28.7041   31.6425    6.0052 C.3       8 UNK         0.0242 
     51 CB         27.9954   32.9662    5.6756 C.3       8 UNK        -0.2000 
     52 C          30.1721   31.9016    6.4061 C.2       8 UNK         0.4948 
     53 O          30.4259   32.2330    7.5648 O.2       8 UNK        -0.5275 
     54 N          31.1050   31.7255    5.4607 N.am      9 UNK        -0.4246 
     55 CA         32.5493   31.7634    5.6655 C.3       9 UNK         0.0261 
     56 CB         33.1085   33.0851    5.1055 C.3       9 UNK        -0.1959 
     57 C          33.1606   30.5192    5.0016 C.2       9 UNK         0.5033 
     58 O          34.0349   30.6464    4.1404 O.2       9 UNK        -0.5390 
     59 N          32.6575   29.3360    5.3915 N.am      10 UNK        -0.4215 
     60 CA         33.0380   28.0228    4.8611 C.3       10 UNK         0.0240 
     61 CB         32.2947   26.9137    5.6222 C.3       10 UNK        -0.1982 
     62 C          34.5566   27.7817    4.8974 C.2       10 UNK         0.4970 
     63 O          35.1568   27.7994    5.9743 O.2       10 UNK        -0.4916 
     64 N          35.1250   27.5920    3.7039 N.am      11 UNK        -0.4279 
     65 CA         36.5540   27.4175    3.4105 C.3       11 UNK         0.1003 
     66 C          37.4325   28.6779    3.6849 C.2       11 UNK         0.5709 
     67 N          36.8649   29.8624    3.8847 N.am      11 UNK        -0.7358 
     68 O          38.6586   28.5920    3.6799 O.2       11 UNK        -0.4999 
     69 C69        37.1595   26.1209    4.0253 C.3       12 UNK        -0.0954 
     70 S70        36.2523   24.5516    3.7584 S.3       12 UNK        -0.2268 
     71 C71        35.6837   24.5873    2.0229 C.3       12 UNK         0.0203 
     72 H72        24.7227   26.7135    4.3196 H         1 UNK         0.0888 
     73 H73        24.2480   26.0489    5.8849 H         1 UNK         0.0888 
     74 H74        25.8906   26.6395    5.6431 H         1 UNK         0.0888 
     75 H75        27.4254   25.0698    5.1297 H         1 UNK         0.3017 
     76 H76        26.7658   22.3428    4.8457 H         1 UNK         0.0873 
     77 H77        29.2350   22.0216    4.5036 H         1 UNK         0.0745 
     78 H78        28.8210   22.9287    5.9200 H         1 UNK         0.0745 
     79 H79        30.1127   23.3298    2.1639 H         1 UNK         0.0705 
     80 H80        31.2616   22.6566    3.2934 H         1 UNK         0.0705 
     81 H81        33.5187   23.2463    2.9582 H         1 UNK         0.1334 
     82 H82        34.5939   26.7929    0.8042 H         1 UNK         0.1417 
     83 H83        30.4768   25.9997    1.7275 H         1 UNK         0.1562 
     84 H84        32.9064   28.5993    0.7119 H         1 UNK         0.0748 
     85 H85        31.2330   28.2800    1.0639 H         1 UNK         0.0748 
     86 H86        29.7136   26.8564   -0.2555 H         1 UNK         0.0940 
     87 H87        30.0105   26.2772   -1.8619 H         1 UNK         0.0940 
     88 H88        29.5817   28.7450   -2.6683 H         1 UNK         0.0703 
     89 H89        27.3722   27.0672   -1.5987 H         1 UNK         0.3081 
     90 H90        25.2567   27.7713   -4.2145 H         1 UNK         0.0719 
     91 H91        26.6383   26.3620   -5.7364 H         1 UNK         0.0809 
     92 H92        26.9220   25.2036   -4.4451 H         1 UNK         0.0809 
     93 H93        25.2952   25.4378   -5.0875 H         1 UNK         0.0809 
     94 H94        25.5304   25.4797   -2.4330 H         1 UNK         0.2990 
     95 H95        24.3460   27.0437    0.4405 H         1 UNK         0.0690 
     96 H96        22.4052   25.5019    0.4287 H         1 UNK         0.0788 
     97 H97        22.5804   25.2461   -1.3087 H         1 UNK         0.0788 
     98 H98        22.1224   26.8257   -0.6876 H         1 UNK         0.0788 
     99 H99        24.5387   24.2899   -0.0650 H         1 UNK         0.2993 
    100 H100       26.2959   23.0314    0.3265 H         1 UNK         0.0949 
    101 H101       29.0603   24.3648    0.0818 H         1 UNK         0.0767 
    102 H102       28.7398   22.6325    0.0850 H         1 UNK         0.0767 
    103 H103       28.1753   23.6280   -1.2470 H         1 UNK         0.0767 
    104 H104       27.2749   24.8150    2.4103 H         1 UNK         0.3013 
    105 H105       30.5732   30.1203   -0.9407 H         1 UNK         0.3121 
    106 H106       28.5959   31.6495    0.5884 H         1 UNK         0.0774 
    107 H107       30.5546   33.1042    1.0773 H         1 UNK         0.0815 
    108 H108       31.6347   31.9535    0.3040 H         1 UNK         0.0815 
    109 H109       30.4188   32.8075   -0.6474 H         1 UNK         0.0815 
    110 H110       28.2049   29.3751    1.6493 H         1 UNK         0.2987 
    111 H111       30.0033   28.2376    3.4657 H         1 UNK         0.0949 
    112 H112       28.0807   27.0364    2.5031 H         1 UNK         0.0806 
    113 H113       28.0175   26.9556    4.2550 H         1 UNK         0.0806 
    114 H114       26.9469   28.0561    3.3912 H         1 UNK         0.0806 
    115 H115       28.2846   31.1315    3.9868 H         1 UNK         0.3010 
    116 H116       28.2057   31.1865    6.8633 H         1 UNK         0.0829 
    117 H117       28.4439   33.4610    4.8131 H         1 UNK         0.0813 
    118 H118       28.0549   33.6595    6.5159 H         1 UNK         0.0813 
    119 H119       26.9379   32.8091    5.4624 H         1 UNK         0.0813 
    120 H120       30.8176   31.4389    4.5261 H         1 UNK         0.3038 
    121 H121       32.7892   31.7071    6.7294 H         1 UNK         0.0769 
    122 H122       32.6678   33.9457    5.6088 H         1 UNK         0.0811 
    123 H123       32.9101   33.1831    4.0372 H         1 UNK         0.0811 
    124 H124       34.1885   33.1437    5.2461 H         1 UNK         0.0811 
    125 H125       31.9313   29.3376    6.0943 H         1 UNK         0.3204 
    126 H126       32.7003   27.9950    3.8232 H         1 UNK         0.0748 
    127 H127       32.5228   26.9310    6.6885 H         1 UNK         0.0771 
    128 H128       31.2151   27.0024    5.5062 H         1 UNK         0.0771 
    129 H129       32.5748   25.9294    5.2434 H         1 UNK         0.0771 
    130 H130       34.5249   27.5997    2.8938 H         1 UNK         0.2980 
    131 H131       36.6034   27.3124    2.3279 H         1 UNK         0.0545 
    132 H132       37.4532   30.6638    4.0449 H         1 UNK         0.3459 
    133 H133       35.8549   29.9723    3.8978 H         1 UNK         0.3459 
    134 H134       37.2754   26.2440    5.1033 H         1 UNK         0.0616 
    135 H135       38.1679   25.9665    3.6376 H         1 UNK         0.0616 
    136 H136       35.7979   23.5850    1.6078 H         1 UNK         0.0634 
    137 H137       36.3266   25.2316    1.4230 H         1 UNK         0.0634 
@<TRIPOS>BOND
     1    1    2 1    
     2    1   72 1    
     3    1   73 1    
     4    1   74 1    
     5    2    3 2    
     6    2    4 am   BACKBONE|DICT|INTERRES
     7    4    5 1    
     8    4   75 1    
     9    5    6 1    
    10    5   35 1    
    11    5   76 1    
    12    6    7 1    
    13    6   77 1    
    14    6   78 1    
    15    7    8 1    
    16    8    9 1    
    17    8   79 1    
    18    8   80 1    
    19    9   10 ar   
    20    9   14 ar   
    21   10   11 ar   
    22   10   81 1    
    23   11   12 ar   
    24   11   71 1    
    25   12   13 ar   
    26   12   82 1    
    27   13   14 ar   
    28   13   15 1    
    29   14   83 1    
    30   15   16 1    
    31   15   84 1    
    32   15   85 1    
    33   16   17 1    
    34   17   18 1    
    35   17   86 1    
    36   17   87 1    
    37   18   19 1    
    38   18   37 1    
    39   18   88 1    
    40   19   20 am   BACKBONE|DICT|INTERRES
    41   19   89 1    
    42   20   21 2    
    43   20   22 1    
    44   22   23 1    
    45   22   24 1    
    46   22   90 1    
    47   23   91 1    
    48   23   92 1    
    49   23   93 1    
    50   24   25 am   BACKBONE|DICT|INTERRES
    51   24   94 1    
    52   25   26 2    
    53   25   27 1    
    54   27   28 1    
    55   27   29 1    
    56   27   95 1    
    57   28   96 1    
    58   28   97 1    
    59   28   98 1    
    60   29   30 am   BACKBONE|DICT|INTERRES
    61   29   99 1    
    62   30   31 2    
    63   30   32 1    
    64   32   33 1    
    65   32   34 1    
    66   32  100 1    
    67   33  101 1    
    68   33  102 1    
    69   33  103 1    
    70   34   35 am   BACKBONE|DICT|INTERRES
    71   34  104 1    
    72   35   36 2    
    73   37   38 2    
    74   37   39 am   BACKBONE|DICT|INTERRES
    75   39   40 1    
    76   39  105 1    
    77   40   41 1    
    78   40   42 1    
    79   40  106 1    
    80   41  107 1    
    81   41  108 1    
    82   41  109 1    
    83   42   43 2    
    84   42   44 am   BACKBONE|DICT|INTERRES
    85   44   45 1    
    86   44  110 1    
    87   45   46 1    
    88   45   47 1    
    89   45  111 1    
    90   46  112 1    
    91   46  113 1    
    92   46  114 1    
    93   47   48 2    
    94   47   49 am   BACKBONE|DICT|INTERRES
    95   49   50 1    
    96   49  115 1    
    97   50   51 1    
    98   50   52 1    
    99   50  116 1    
   100   51  117 1    
   101   51  118 1    
   102   51  119 1    
   103   52   53 2    
   104   52   54 am   BACKBONE|DICT|INTERRES
   105   54   55 1    
   106   54  120 1    
   107   55   56 1    
   108   55   57 1    
   109   55  121 1    
   110   56  122 1    
   111   56  123 1    
   112   56  124 1    
   113   57   58 2    
   114   57   59 am   BACKBONE|DICT|INTERRES
   115   59   60 1    
   116   59  125 1    
   117   60   61 1    
   118   60   62 1    
   119   60  126 1    
   120   61  127 1    
   121   61  128 1    
   122   61  129 1    
   123   62   63 2    
   124   62   64 am   BACKBONE|DICT|INTERRES
   125   64   65 1    
   126   64  130 1    
   127   65   66 1    
   128   65   69 1    
   129   65  131 1    
   130   66   67 am   BACKBONE|DICT|INTERRES
   131   66   68 2    
   132   67  132 1    
   133   67  133 1    
   134   69   70 1    
   135   69  134 1    
   136   69  135 1    
   137   70   71 1    
   138   71  136 1    
   139   71  137 1    
@<TRIPOS>SUBSTRUCTURE
     1 UNK         1 GROUP             0       ****    0 ROOT    
