@<TRIPOS>MOLECULE
3R136
137   139    1
SMALL
USER_CHARGES


@<TRIPOS>ATOM
      1 CA         27.9901   21.0054   -3.7196 C.3       0 UNK        -0.1979 
      2 C          28.1180   20.2146   -2.4191 C.2       0 UNK         0.4864 
      3 O          27.7356   19.0461   -2.3893 O.2       0 UNK        -0.5359 
      4 N          28.6483   20.7844   -1.3248 N.am      1 UNK        -0.4318 
      5 CA         29.1055   22.1736   -1.1658 C.3       1 UNK         0.0824 
      6 C6         29.9136   22.3556    0.1491 C.3       12 UNK        -0.0944 
      7 S7         31.4461   23.3152   -0.0880 S.3       12 UNK        -0.2672 
      8 C8         32.5079   22.6612    1.2410 C.3       12 UNK         0.0333 
      9 C9         32.1422   23.2456    2.5988 C.ar      12 UNK        -0.0807 
     10 C10        32.9113   24.2713    3.1583 C.ar      12 UNK        -0.0894 
     11 C11        32.5857   24.7985    4.4122 C.ar      12 UNK        -0.0804 
     12 C12        31.4706   24.3087    5.0981 C.ar      12 UNK        -0.0824 
     13 C13        30.6809   23.3012    4.5371 C.ar      12 UNK        -0.0762 
     14 C14        31.0377   22.7562    3.3015 C.ar      12 UNK        -0.0782 
     15 C15        29.4297   22.8120    5.2518 C.3       12 UNK         0.0230 
     16 S16        28.1506   24.1064    5.3678 S.3       12 UNK        -0.2608 
     17 C17        27.9137   24.6156    3.6264 C.3       12 UNK        -0.0989 
     18 CA         28.5825   25.9774    3.2958 C.3       5 UNK         0.0716 
     19 N          28.6413   26.2241    1.8513 N.am      5 UNK        -0.4135 
     20 C          29.4892   27.0924    1.2745 C.2       4 UNK         0.5031 
     21 O          30.3996   27.6563    1.8782 O.2       4 UNK        -0.5229 
     22 CA         29.2812   27.4324   -0.2151 C.3       4 UNK         0.0329 
     23 CB         30.3136   26.7235   -1.1029 C.3       4 UNK        -0.2001 
     24 N          27.9289   27.1472   -0.7027 N.am      4 UNK        -0.4303 
     25 C          26.8477   27.8554   -0.3435 C.2       3 UNK         0.5044 
     26 O          26.8979   28.8348    0.3974 O.2       3 UNK        -0.5152 
     27 CA         25.4706   27.3772   -0.8360 C.3       3 UNK         0.0319 
     28 CB         25.0609   28.1435   -2.1030 C.3       3 UNK        -0.2001 
     29 N          25.3786   25.9374   -1.0895 N.am      3 UNK        -0.4354 
     30 C          25.6398   24.9655   -0.2043 C.2       2 UNK         0.4964 
     31 O          26.0192   25.1756    0.9498 O.2       2 UNK        -0.5047 
     32 CA         25.5013   23.5120   -0.6964 C.3       2 UNK         0.0288 
     33 CB         24.8469   23.3739   -2.0911 C.3       2 UNK        -0.2113 
     34 N          26.7835   22.7991   -0.6767 N.am      2 UNK        -0.4145 
     35 C          27.9378   23.1806   -1.2498 C.2       1 UNK         0.5006 
     36 O          28.0907   24.2415   -1.8575 O.2       1 UNK        -0.5103 
     37 C          27.8823   27.1535    4.0112 C.2       5 UNK         0.5055 
     38 O          28.3506   27.5960    5.0613 O.2       5 UNK        -0.5220 
     39 N          26.7753   27.6412    3.4279 N.am      6 UNK        -0.4450 
     40 CA         25.9896   28.7652    3.9451 C.3       6 UNK         0.0367 
     41 CB         24.6485   28.8465    3.1982 C.3       6 UNK        -0.1929 
     42 C          26.7434   30.1032    3.8643 C.2       6 UNK         0.5070 
     43 O          26.7008   30.8857    4.8151 O.2       6 UNK        -0.5237 
     44 N          27.4381   30.3372    2.7439 N.am      7 UNK        -0.4739 
     45 CA         28.2995   31.4940    2.5029 C.3       7 UNK         0.0276 
     46 CB         28.5209   31.6446    0.9865 C.3       7 UNK        -0.1927 
     47 C          29.6253   31.3723    3.2753 C.2       7 UNK         0.5013 
     48 O          30.6780   31.1719    2.6686 O.2       7 UNK        -0.5193 
     49 N          29.5540   31.5203    4.6056 N.am      8 UNK        -0.4253 
     50 CA         30.6652   31.3985    5.5607 C.3       8 UNK         0.0242 
     51 CB         30.1361   31.6457    6.9817 C.3       8 UNK        -0.2000 
     52 C          31.8879   32.2948    5.2790 C.2       8 UNK         0.4948 
     53 O          32.9830   31.9745    5.7403 O.2       8 UNK        -0.5275 
     54 N          31.7070   33.3635    4.4904 N.am      9 UNK        -0.4246 
     55 CA         32.7813   34.1899    3.9346 C.3       9 UNK         0.0261 
     56 CB         32.1653   35.3904    3.1982 C.3       9 UNK        -0.1959 
     57 C          33.7394   33.4196    3.0018 C.2       9 UNK         0.5033 
     58 O          34.9040   33.8075    2.9005 O.2       9 UNK        -0.5390 
     59 N          33.2565   32.3473    2.3526 N.am      10 UNK        -0.4215 
     60 CA         34.0799   31.4302    1.5600 C.3       10 UNK         0.0240 
     61 CB         33.1897   30.6421    0.5840 C.3       10 UNK        -0.1982 
     62 C          34.8884   30.4685    2.4477 C.2       10 UNK         0.4970 
     63 O          36.0086   30.1121    2.0801 O.2       10 UNK        -0.4916 
     64 N          34.3141   30.0705    3.5905 N.am      11 UNK        -0.4279 
     65 CA         34.9672   29.2375    4.6098 C.3       11 UNK         0.1003 
     66 C          36.0500   30.0159    5.4032 C.2       11 UNK         0.5709 
     67 N          35.7712   31.2396    5.8349 N.am      11 UNK        -0.7358 
     68 O          37.1467   29.5078    5.6240 O.2       11 UNK        -0.4999 
     69 C69        33.9447   28.5881    5.5777 C.3       12 UNK        -0.0954 
     70 S70        32.7273   27.5375    4.7205 S.3       12 UNK        -0.2268 
     71 C71        33.4373   25.8943    5.0312 C.3       12 UNK         0.0203 
     72 H72        27.8145   20.3296   -4.5565 H         1 UNK         0.0888 
     73 H73        27.1481   21.6950   -3.6698 H         1 UNK         0.0888 
     74 H74        28.8949   21.5683   -3.9438 H         1 UNK         0.0888 
     75 H75        28.7312   20.2101   -0.4982 H         1 UNK         0.3017 
     76 H76        29.7678   22.3829   -2.0076 H         1 UNK         0.0873 
     77 H77        30.2029   21.3820    0.5475 H         1 UNK         0.0745 
     78 H78        29.3224   22.8279    0.9360 H         1 UNK         0.0745 
     79 H79        33.5453   22.8980    0.9998 H         1 UNK         0.0705 
     80 H80        32.4487   21.5723    1.2698 H         1 UNK         0.0705 
     81 H81        33.7667   24.6573    2.6207 H         1 UNK         0.1334 
     82 H82        31.2011   24.7298    6.0574 H         1 UNK         0.1417 
     83 H83        30.4425   21.9600    2.8784 H         1 UNK         0.1562 
     84 H84        29.6953   22.4850    6.2580 H         1 UNK         0.0748 
     85 H85        29.0059   21.9414    4.7487 H         1 UNK         0.0748 
     86 H86        26.8419   24.6480    3.4228 H         1 UNK         0.0940 
     87 H87        28.3099   23.8363    2.9750 H         1 UNK         0.0940 
     88 H88        29.6110   25.9406    3.6614 H         1 UNK         0.0703 
     89 H89        27.8953   25.8181    1.2970 H         1 UNK         0.3081 
     90 H90        29.4512   28.5064   -0.3158 H         1 UNK         0.0719 
     91 H91        30.1614   25.6466   -1.1115 H         1 UNK         0.0809 
     92 H92        30.2595   27.0761   -2.1327 H         1 UNK         0.0809 
     93 H93        31.3290   26.9072   -0.7485 H         1 UNK         0.0809 
     94 H94        27.8138   26.3247   -1.2852 H         1 UNK         0.2990 
     95 H95        24.7504   27.6109   -0.0493 H         1 UNK         0.0690 
     96 H96        25.7239   27.9223   -2.9405 H         1 UNK         0.0788 
     97 H97        25.0955   29.2212   -1.9356 H         1 UNK         0.0788 
     98 H98        24.0425   27.8980   -2.4050 H         1 UNK         0.0788 
     99 H99        25.1053   25.6614   -2.0216 H         1 UNK         0.2993 
    100 H100       24.8528   23.0133    0.0258 H         1 UNK         0.0949 
    101 H101       25.4555   23.8168   -2.8807 H         1 UNK         0.0767 
    102 H102       24.6985   22.3244   -2.3466 H         1 UNK         0.0767 
    103 H103       23.8635   23.8458   -2.1178 H         1 UNK         0.0767 
    104 H104       26.7779   21.9158   -0.1861 H         1 UNK         0.3013 
    105 H105       26.4618   27.2267    2.5617 H         1 UNK         0.3121 
    106 H106       25.7792   28.5682    4.9985 H         1 UNK         0.0774 
    107 H107       24.0296   29.6499    3.6000 H         1 UNK         0.0815 
    108 H108       24.7861   29.0450    2.1349 H         1 UNK         0.0815 
    109 H109       24.0809   27.9211    3.2972 H         1 UNK         0.0815 
    110 H110       27.3731   29.6620    1.9845 H         1 UNK         0.2987 
    111 H111       27.7892   32.3927    2.8561 H         1 UNK         0.0949 
    112 H112       29.0236   30.7734    0.5649 H         1 UNK         0.0806 
    113 H113       27.5760   31.7714    0.4580 H         1 UNK         0.0806 
    114 H114       29.1380   32.5163    0.7653 H         1 UNK         0.0806 
    115 H115       28.6241   31.6136    5.0016 H         1 UNK         0.3010 
    116 H116       31.0150   30.3655    5.5029 H         1 UNK         0.0829 
    117 H117       30.9299   31.5283    7.7210 H         1 UNK         0.0813 
    118 H118       29.7329   32.6531    7.0920 H         1 UNK         0.0813 
    119 H119       29.3486   30.9373    7.2404 H         1 UNK         0.0813 
    120 H120       30.7713   33.5553    4.1647 H         1 UNK         0.3038 
    121 H121       33.3740   34.5663    4.7710 H         1 UNK         0.0769 
    122 H122       32.9428   36.0416    2.7960 H         1 UNK         0.0811 
    123 H123       31.5530   35.9959    3.8667 H         1 UNK         0.0811 
    124 H124       31.5406   35.0743    2.3616 H         1 UNK         0.0811 
    125 H125       32.2837   32.0739    2.4870 H         1 UNK         0.3204 
    126 H126       34.7871   32.0185    0.9712 H         1 UNK         0.0748 
    127 H127       33.7937   30.0132   -0.0712 H         1 UNK         0.0771 
    128 H128       32.4924   29.9866    1.1083 H         1 UNK         0.0771 
    129 H129       32.6075   31.3096   -0.0515 H         1 UNK         0.0771 
    130 H130       33.3986   30.4214    3.8267 H         1 UNK         0.2980 
    131 H131       35.4794   28.4258    4.0891 H         1 UNK         0.0545 
    132 H132       34.8340   31.6169    5.7176 H         1 UNK         0.3459 
    133 H133       36.4657   31.7583    6.3474 H         1 UNK         0.3459 
    134 H134       34.4590   27.9915    6.3334 H         1 UNK         0.0616 
    135 H135       33.3959   29.3541    6.1272 H         1 UNK         0.0616 
    136 H136       33.5203   25.7318    6.1070 H         1 UNK         0.0634 
    137 H137       34.4521   25.8590    4.6318 H         1 UNK         0.0634 
@<TRIPOS>BOND
     1    1    2 1    
     2    1   72 1    
     3    1   73 1    
     4    1   74 1    
     5    2    3 2    
     6    2    4 am   BACKBONE|DICT|INTERRES
     7    4    5 1    
     8    4   75 1    
     9    5    6 1    
    10    5   35 1    
    11    5   76 1    
    12    6    7 1    
    13    6   77 1    
    14    6   78 1    
    15    7    8 1    
    16    8    9 1    
    17    8   79 1    
    18    8   80 1    
    19    9   10 ar   
    20    9   14 ar   
    21   10   11 ar   
    22   10   81 1    
    23   11   12 ar   
    24   11   71 1    
    25   12   13 ar   
    26   12   82 1    
    27   13   14 ar   
    28   13   15 1    
    29   14   83 1    
    30   15   16 1    
    31   15   84 1    
    32   15   85 1    
    33   16   17 1    
    34   17   18 1    
    35   17   86 1    
    36   17   87 1    
    37   18   19 1    
    38   18   37 1    
    39   18   88 1    
    40   19   20 am   BACKBONE|DICT|INTERRES
    41   19   89 1    
    42   20   21 2    
    43   20   22 1    
    44   22   23 1    
    45   22   24 1    
    46   22   90 1    
    47   23   91 1    
    48   23   92 1    
    49   23   93 1    
    50   24   25 am   BACKBONE|DICT|INTERRES
    51   24   94 1    
    52   25   26 2    
    53   25   27 1    
    54   27   28 1    
    55   27   29 1    
    56   27   95 1    
    57   28   96 1    
    58   28   97 1    
    59   28   98 1    
    60   29   30 am   BACKBONE|DICT|INTERRES
    61   29   99 1    
    62   30   31 2    
    63   30   32 1    
    64   32   33 1    
    65   32   34 1    
    66   32  100 1    
    67   33  101 1    
    68   33  102 1    
    69   33  103 1    
    70   34   35 am   BACKBONE|DICT|INTERRES
    71   34  104 1    
    72   35   36 2    
    73   37   38 2    
    74   37   39 am   BACKBONE|DICT|INTERRES
    75   39   40 1    
    76   39  105 1    
    77   40   41 1    
    78   40   42 1    
    79   40  106 1    
    80   41  107 1    
    81   41  108 1    
    82   41  109 1    
    83   42   43 2    
    84   42   44 am   BACKBONE|DICT|INTERRES
    85   44   45 1    
    86   44  110 1    
    87   45   46 1    
    88   45   47 1    
    89   45  111 1    
    90   46  112 1    
    91   46  113 1    
    92   46  114 1    
    93   47   48 2    
    94   47   49 am   BACKBONE|DICT|INTERRES
    95   49   50 1    
    96   49  115 1    
    97   50   51 1    
    98   50   52 1    
    99   50  116 1    
   100   51  117 1    
   101   51  118 1    
   102   51  119 1    
   103   52   53 2    
   104   52   54 am   BACKBONE|DICT|INTERRES
   105   54   55 1    
   106   54  120 1    
   107   55   56 1    
   108   55   57 1    
   109   55  121 1    
   110   56  122 1    
   111   56  123 1    
   112   56  124 1    
   113   57   58 2    
   114   57   59 am   BACKBONE|DICT|INTERRES
   115   59   60 1    
   116   59  125 1    
   117   60   61 1    
   118   60   62 1    
   119   60  126 1    
   120   61  127 1    
   121   61  128 1    
   122   61  129 1    
   123   62   63 2    
   124   62   64 am   BACKBONE|DICT|INTERRES
   125   64   65 1    
   126   64  130 1    
   127   65   66 1    
   128   65   69 1    
   129   65  131 1    
   130   66   67 am   BACKBONE|DICT|INTERRES
   131   66   68 2    
   132   67  132 1    
   133   67  133 1    
   134   69   70 1    
   135   69  134 1    
   136   69  135 1    
   137   70   71 1    
   138   71  136 1    
   139   71  137 1    
@<TRIPOS>SUBSTRUCTURE
     1 UNK         1 GROUP             0       ****    0 ROOT    
