@<TRIPOS>MOLECULE
3R136
137   139    1
SMALL
USER_CHARGES


@<TRIPOS>ATOM
      1 CA         29.8903   27.0581   -5.0193 C.3       0 UNK        -0.1979 
      2 C          29.3278   27.3121   -3.6286 C.2       0 UNK         0.4864 
      3 O          28.4510   28.1619   -3.4707 O.2       0 UNK        -0.5359 
      4 N          29.8267   26.5811   -2.6225 N.am      1 UNK        -0.4318 
      5 CA         29.3976   26.6654   -1.2204 C.3       1 UNK         0.0824 
      6 C6         30.4134   25.9745   -0.2746 C.3       12 UNK        -0.0944 
      7 S7         30.6778   24.2056   -0.6544 S.3       12 UNK        -0.2672 
      8 C8         32.2357   23.8601    0.2219 C.3       12 UNK         0.0333 
      9 C9         32.0951   23.9698    1.7347 C.ar      12 UNK        -0.0807 
     10 C10        32.9210   24.8385    2.4547 C.ar      12 UNK        -0.0894 
     11 C11        32.8187   24.9448    3.8452 C.ar      12 UNK        -0.0804 
     12 C12        31.8765   24.1503    4.5127 C.ar      12 UNK        -0.0824 
     13 C13        31.0404   23.2800    3.8071 C.ar      12 UNK        -0.0762 
     14 C14        31.1597   23.1872    2.4187 C.ar      12 UNK        -0.0782 
     15 C15        30.0108   22.4419    4.5553 C.3       12 UNK         0.0230 
     16 S16        28.2931   22.9648    4.2313 S.3       12 UNK        -0.2608 
     17 C17        28.3440   24.7605    4.5649 C.3       12 UNK        -0.0989 
     18 CA         28.0052   25.5675    3.2802 C.3       5 UNK         0.0716 
     19 N          26.6064   25.4029    2.8557 N.am      5 UNK        -0.4135 
     20 C          25.5197   25.8441    3.5142 C.2       4 UNK         0.5031 
     21 O          25.5616   26.4165    4.6041 O.2       4 UNK        -0.5229 
     22 CA         24.1428   25.6505    2.8506 C.3       4 UNK         0.0329 
     23 CB         23.6831   26.9673    2.2019 C.3       4 UNK        -0.2001 
     24 N          24.1205   24.5967    1.8389 N.am      4 UNK        -0.4303 
     25 C          24.2165   23.2815    2.0796 C.2       3 UNK         0.5044 
     26 O          24.2136   22.7882    3.2076 O.2       3 UNK        -0.5152 
     27 CA         24.3596   22.3623    0.8488 C.3       3 UNK         0.0319 
     28 CB         23.0255   21.6638    0.5395 C.3       3 UNK        -0.2001 
     29 N          24.8300   23.0594   -0.3570 N.am      3 UNK        -0.4354 
     30 C          26.0237   23.6589   -0.4771 C.2       2 UNK         0.4964 
     31 O          26.8844   23.6209    0.4049 O.2       2 UNK        -0.5047 
     32 CA         26.2614   24.4469   -1.7820 C.3       2 UNK         0.0288 
     33 CB         25.1031   25.4223   -2.0928 C.3       2 UNK        -0.2113 
     34 N          27.5438   25.1615   -1.8040 N.am      2 UNK        -0.4145 
     35 C          27.9596   26.1468   -0.9896 C.2       1 UNK         0.5006 
     36 O          27.2758   26.6431   -0.0899 O.2       1 UNK        -0.5103 
     37 C          28.3975   27.0616    3.3642 C.2       5 UNK         0.5055 
     38 O          29.0971   27.4767    4.2884 O.2       5 UNK        -0.5220 
     39 N          27.9261   27.8499    2.3900 N.am      6 UNK        -0.4450 
     40 CA         28.1163   29.2938    2.2968 C.3       6 UNK         0.0367 
     41 CB         26.7972   29.9287    1.8180 C.3       6 UNK        -0.1929 
     42 C          29.2930   29.5918    1.3574 C.2       6 UNK         0.5070 
     43 O          29.0965   30.1300    0.2662 O.2       6 UNK        -0.5237 
     44 N          30.4981   29.1929    1.7789 N.am      7 UNK        -0.4739 
     45 CA         31.7468   29.4412    1.0568 C.3       7 UNK         0.0276 
     46 CB         32.8322   28.5080    1.6116 C.3       7 UNK        -0.1927 
     47 C          32.1834   30.9140    1.1547 C.2       7 UNK         0.5013 
     48 O          31.7353   31.6389    2.0474 O.2       7 UNK        -0.5193 
     49 N          33.0655   31.3261    0.2345 N.am      8 UNK        -0.4253 
     50 CA         33.6223   32.6775    0.1412 C.3       8 UNK         0.0242 
     51 CB         34.4214   32.8041   -1.1685 C.3       8 UNK        -0.2000 
     52 C          34.4831   33.0265    1.3689 C.2       8 UNK         0.4948 
     53 O          35.6574   32.6551    1.4145 O.2       8 UNK        -0.5275 
     54 N          33.8625   33.7122    2.3399 N.am      9 UNK        -0.4246 
     55 CA         34.4209   34.1492    3.6248 C.3       9 UNK         0.0261 
     56 CB         35.4972   35.2357    3.4094 C.3       9 UNK        -0.1959 
     57 C          34.9096   32.9862    4.5139 C.2       9 UNK         0.5033 
     58 O          35.9155   33.1349    5.2121 O.2       9 UNK        -0.5390 
     59 N          34.1911   31.8559    4.4908 N.am      10 UNK        -0.4215 
     60 CA         34.4857   30.6708    5.2935 C.3       10 UNK         0.0240 
     61 CB         35.4739   29.7602    4.5414 C.3       10 UNK        -0.1982 
     62 C          33.1863   29.9270    5.6137 C.2       10 UNK         0.4970 
     63 O          32.2510   29.9649    4.8138 O.2       10 UNK        -0.4916 
     64 N          33.1719   29.2528    6.7696 N.am      11 UNK        -0.4279 
     65 CA         32.0961   28.3713    7.2624 C.3       11 UNK         0.1003 
     66 C          30.7283   29.0614    7.5606 C.2       11 UNK         0.5709 
     67 N          30.6356   30.3859    7.5616 N.am      11 UNK        -0.7358 
     68 O          29.7446   28.3883    7.8594 O.2       11 UNK        -0.4999 
     69 C69        31.9470   27.0766    6.4126 C.3       12 UNK        -0.0954 
     70 S70        33.4941   26.1060    6.3653 S.3       12 UNK        -0.2268 
     71 C71        33.7594   25.9152    4.5682 C.3       12 UNK         0.0203 
     72 H72        30.3315   27.9713   -5.4178 H         1 UNK         0.0888 
     73 H73        30.6585   26.2850   -5.0143 H         1 UNK         0.0888 
     74 H74        29.0949   26.7413   -5.6935 H         1 UNK         0.0888 
     75 H75        30.5470   25.8976   -2.8114 H         1 UNK         0.3017 
     76 H76        29.3807   27.7253   -0.9619 H         1 UNK         0.0873 
     77 H77        30.1051   26.0739    0.7674 H         1 UNK         0.0745 
     78 H78        31.3735   26.4864   -0.3485 H         1 UNK         0.0745 
     79 H79        33.0097   24.5321   -0.1521 H         1 UNK         0.0705 
     80 H80        32.5606   22.8491   -0.0273 H         1 UNK         0.0705 
     81 H81        33.6571   25.4325    1.9305 H         1 UNK         0.1334 
     82 H82        31.7772   24.2024    5.5867 H         1 UNK         0.1417 
     83 H83        30.5146   22.5149    1.8687 H         1 UNK         0.1562 
     84 H84        30.1898   22.4796    5.6310 H         1 UNK         0.0748 
     85 H85        30.1208   21.3956    4.2668 H         1 UNK         0.0748 
     86 H86        29.3258   25.0293    4.9533 H         1 UNK         0.0940 
     87 H87        27.6462   24.9913    5.3706 H         1 UNK         0.0940 
     88 H88        28.6123   25.1632    2.4684 H         1 UNK         0.0703 
     89 H89        26.4855   24.9245    1.9692 H         1 UNK         0.3081 
     90 H90        23.4322   25.3841    3.6360 H         1 UNK         0.0719 
     91 H91        24.3563   27.2801    1.4020 H         1 UNK         0.0809 
     92 H92        22.6805   26.8770    1.7836 H         1 UNK         0.0809 
     93 H93        23.6543   27.7745    2.9354 H         1 UNK         0.0809 
     94 H94        24.1102   24.8972    0.8758 H         1 UNK         0.2990 
     95 H95        25.0978   21.5981    1.1011 H         1 UNK         0.0690 
     96 H96        23.1313   20.9474   -0.2755 H         1 UNK         0.0788 
     97 H97        22.2496   22.3785    0.2622 H         1 UNK         0.0788 
     98 H98        22.6638   21.1113    1.4080 H         1 UNK         0.0788 
     99 H99        24.1775   23.1175   -1.1260 H         1 UNK         0.2993 
    100 H100       26.3120   23.7096   -2.5848 H         1 UNK         0.0949 
    101 H101       25.3179   26.0155   -2.9820 H         1 UNK         0.0767 
    102 H102       24.1698   24.8929   -2.2859 H         1 UNK         0.0767 
    103 H103       24.9223   26.1159   -1.2706 H         1 UNK         0.0767 
    104 H104       28.2194   24.8120   -2.4682 H         1 UNK         0.3013 
    105 H105       27.4594   27.4119    1.5974 H         1 UNK         0.3121 
    106 H106       28.3561   29.7121    3.2770 H         1 UNK         0.0774 
    107 H107       26.8946   31.0115    1.7302 H         1 UNK         0.0815 
    108 H108       26.4951   29.5457    0.8420 H         1 UNK         0.0815 
    109 H109       25.9865   29.7309    2.5195 H         1 UNK         0.0815 
    110 H110       30.5785   28.8074    2.7113 H         1 UNK         0.2987 
    111 H111       31.5865   29.2025    0.0028 H         1 UNK         0.0949 
    112 H112       33.7738   28.6236    1.0736 H         1 UNK         0.0806 
    113 H113       33.0289   28.7067    2.6635 H         1 UNK         0.0806 
    114 H114       32.5320   27.4662    1.5221 H         1 UNK         0.0806 
    115 H115       33.4063   30.6585   -0.4419 H         1 UNK         0.3010 
    116 H116       32.7899   33.3830    0.0897 H         1 UNK         0.0829 
    117 H117       33.7851   32.6458   -2.0395 H         1 UNK         0.0813 
    118 H118       34.8566   33.7999   -1.2636 H         1 UNK         0.0813 
    119 H119       35.2410   32.0857   -1.2163 H         1 UNK         0.0813 
    120 H120       32.8740   33.8911    2.2176 H         1 UNK         0.3038 
    121 H121       33.5967   34.6115    4.1701 H         1 UNK         0.0769 
    122 H122       35.8185   35.6637    4.3598 H         1 UNK         0.0811 
    123 H123       35.1179   36.0556    2.7996 H         1 UNK         0.0811 
    124 H124       36.3842   34.8342    2.9181 H         1 UNK         0.0811 
    125 H125       33.3493   31.7977    3.9266 H         1 UNK         0.3204 
    126 H126       34.9354   30.9795    6.2400 H         1 UNK         0.0748 
    127 H127       35.6634   28.8394    5.0948 H         1 UNK         0.0771 
    128 H128       35.0965   29.4809    3.5577 H         1 UNK         0.0771 
    129 H129       36.4344   30.2556    4.3980 H         1 UNK         0.0771 
    130 H130       33.9865   29.2994    7.3641 H         1 UNK         0.2980 
    131 H131       32.4362   28.0560    8.2494 H         1 UNK         0.0545 
    132 H132       29.7510   30.8176    7.7762 H         1 UNK         0.3459 
    133 H133       31.4318   30.9529    7.3211 H         1 UNK         0.3459 
    134 H134       31.1734   26.4273    6.8257 H         1 UNK         0.0616 
    135 H135       31.6255   27.3199    5.3988 H         1 UNK         0.0616 
    136 H136       34.7838   25.5719    4.4184 H         1 UNK         0.0634 
    137 H137       33.6949   26.8995    4.1036 H         1 UNK         0.0634 
@<TRIPOS>BOND
     1    1    2 1    
     2    1   72 1    
     3    1   73 1    
     4    1   74 1    
     5    2    3 2    
     6    2    4 am   BACKBONE|DICT|INTERRES
     7    4    5 1    
     8    4   75 1    
     9    5    6 1    
    10    5   35 1    
    11    5   76 1    
    12    6    7 1    
    13    6   77 1    
    14    6   78 1    
    15    7    8 1    
    16    8    9 1    
    17    8   79 1    
    18    8   80 1    
    19    9   10 ar   
    20    9   14 ar   
    21   10   11 ar   
    22   10   81 1    
    23   11   12 ar   
    24   11   71 1    
    25   12   13 ar   
    26   12   82 1    
    27   13   14 ar   
    28   13   15 1    
    29   14   83 1    
    30   15   16 1    
    31   15   84 1    
    32   15   85 1    
    33   16   17 1    
    34   17   18 1    
    35   17   86 1    
    36   17   87 1    
    37   18   19 1    
    38   18   37 1    
    39   18   88 1    
    40   19   20 am   BACKBONE|DICT|INTERRES
    41   19   89 1    
    42   20   21 2    
    43   20   22 1    
    44   22   23 1    
    45   22   24 1    
    46   22   90 1    
    47   23   91 1    
    48   23   92 1    
    49   23   93 1    
    50   24   25 am   BACKBONE|DICT|INTERRES
    51   24   94 1    
    52   25   26 2    
    53   25   27 1    
    54   27   28 1    
    55   27   29 1    
    56   27   95 1    
    57   28   96 1    
    58   28   97 1    
    59   28   98 1    
    60   29   30 am   BACKBONE|DICT|INTERRES
    61   29   99 1    
    62   30   31 2    
    63   30   32 1    
    64   32   33 1    
    65   32   34 1    
    66   32  100 1    
    67   33  101 1    
    68   33  102 1    
    69   33  103 1    
    70   34   35 am   BACKBONE|DICT|INTERRES
    71   34  104 1    
    72   35   36 2    
    73   37   38 2    
    74   37   39 am   BACKBONE|DICT|INTERRES
    75   39   40 1    
    76   39  105 1    
    77   40   41 1    
    78   40   42 1    
    79   40  106 1    
    80   41  107 1    
    81   41  108 1    
    82   41  109 1    
    83   42   43 2    
    84   42   44 am   BACKBONE|DICT|INTERRES
    85   44   45 1    
    86   44  110 1    
    87   45   46 1    
    88   45   47 1    
    89   45  111 1    
    90   46  112 1    
    91   46  113 1    
    92   46  114 1    
    93   47   48 2    
    94   47   49 am   BACKBONE|DICT|INTERRES
    95   49   50 1    
    96   49  115 1    
    97   50   51 1    
    98   50   52 1    
    99   50  116 1    
   100   51  117 1    
   101   51  118 1    
   102   51  119 1    
   103   52   53 2    
   104   52   54 am   BACKBONE|DICT|INTERRES
   105   54   55 1    
   106   54  120 1    
   107   55   56 1    
   108   55   57 1    
   109   55  121 1    
   110   56  122 1    
   111   56  123 1    
   112   56  124 1    
   113   57   58 2    
   114   57   59 am   BACKBONE|DICT|INTERRES
   115   59   60 1    
   116   59  125 1    
   117   60   61 1    
   118   60   62 1    
   119   60  126 1    
   120   61  127 1    
   121   61  128 1    
   122   61  129 1    
   123   62   63 2    
   124   62   64 am   BACKBONE|DICT|INTERRES
   125   64   65 1    
   126   64  130 1    
   127   65   66 1    
   128   65   69 1    
   129   65  131 1    
   130   66   67 am   BACKBONE|DICT|INTERRES
   131   66   68 2    
   132   67  132 1    
   133   67  133 1    
   134   69   70 1    
   135   69  134 1    
   136   69  135 1    
   137   70   71 1    
   138   71  136 1    
   139   71  137 1    
@<TRIPOS>SUBSTRUCTURE
     1 UNK         1 GROUP             0       ****    0 ROOT    
