@<TRIPOS>MOLECULE
3R136
137   139    1
SMALL
USER_CHARGES


@<TRIPOS>ATOM
      1 CA         30.7467   24.8528    6.9707 C.3       0 UNK        -0.1979 
      2 C          29.4419   24.4403    6.3085 C.2       0 UNK         0.4864 
      3 O          28.4552   24.1955    7.0033 O.2       0 UNK        -0.5359 
      4 N          29.4370   24.3449    4.9724 N.am      1 UNK        -0.4318 
      5 CA         28.2869   23.8989    4.1793 C.3       1 UNK         0.0824 
      6 C6         28.7000   23.3903    2.7724 C.3       12 UNK        -0.0944 
      7 S7         29.5733   24.6271    1.7456 S.3       12 UNK        -0.2672 
      8 C8         31.2413   23.9109    1.6721 C.3       12 UNK         0.0333 
      9 C9         32.1991   24.8447    0.9515 C.ar      12 UNK        -0.0807 
     10 C10        32.9696   25.7565    1.6768 C.ar      12 UNK        -0.0894 
     11 C11        33.8701   26.6046    1.0251 C.ar      12 UNK        -0.0804 
     12 C12        33.9702   26.5584   -0.3686 C.ar      12 UNK        -0.0824 
     13 C13        33.1800   25.6724   -1.1077 C.ar      12 UNK        -0.0762 
     14 C14        32.3105   24.8037   -0.4406 C.ar      12 UNK        -0.0782 
     15 C15        33.2634   25.6609   -2.6269 C.3       12 UNK         0.0230 
     16 S16        32.3512   27.0542   -3.3682 S.3       12 UNK        -0.2608 
     17 C17        30.6143   26.5659   -3.0884 C.3       12 UNK        -0.0989 
     18 CA         29.6795   27.7838   -2.8905 C.3       5 UNK         0.0716 
     19 N          28.2838   27.4112   -3.1065 N.am      5 UNK        -0.4135 
     20 C          27.3209   28.2438   -3.5233 C.2       4 UNK         0.5031 
     21 O          27.5289   29.3797   -3.9519 O.2       4 UNK        -0.5229 
     22 CA         25.8732   27.7250   -3.4209 C.3       4 UNK         0.0329 
     23 CB         25.4564   27.0205   -4.7221 C.3       4 UNK        -0.2001 
     24 N          25.6754   26.8161   -2.2849 N.am      4 UNK        -0.4303 
     25 C          25.7670   27.1859   -0.9986 C.2       3 UNK         0.5044 
     26 O          25.9084   28.3580   -0.6482 O.2       3 UNK        -0.5152 
     27 CA         25.6961   26.0637    0.0565 C.3       3 UNK         0.0319 
     28 CB         26.3398   24.7470   -0.4253 C.3       3 UNK        -0.2001 
     29 N          26.3588   26.4604    1.2992 N.am      3 UNK        -0.4354 
     30 C          25.7853   27.1128    2.3199 C.2       2 UNK         0.4964 
     31 O          24.6079   27.4775    2.3285 O.2       2 UNK        -0.5047 
     32 CA         26.6860   27.3669    3.5498 C.3       2 UNK         0.0288 
     33 CB         25.9041   27.8256    4.7985 C.3       2 UNK        -0.2113 
     34 N          27.5534   26.2244    3.8707 N.am      2 UNK        -0.4145 
     35 C          27.1673   24.9561    4.0952 C.2       1 UNK         0.5006 
     36 O          25.9936   24.5953    4.2013 O.2       1 UNK        -0.5103 
     37 C          29.8023   28.3928   -1.4790 C.2       5 UNK         0.5055 
     38 O          29.1853   27.8801   -0.5410 O.2       5 UNK        -0.5220 
     39 N          30.5802   29.4777   -1.3628 N.am      6 UNK        -0.4450 
     40 CA         30.8643   30.2847   -0.1658 C.3       6 UNK         0.0367 
     41 CB         31.5244   29.4476    0.9464 C.3       6 UNK        -0.1929 
     42 C          29.6683   31.0809    0.3872 C.2       6 UNK         0.5070 
     43 O          29.8407   32.2569    0.7070 O.2       6 UNK        -0.5237 
     44 N          28.4964   30.4399    0.5030 N.am      7 UNK        -0.4739 
     45 CA         27.2362   30.9690    1.0490 C.3       7 UNK         0.0276 
     46 CB         26.6678   32.0811    0.1429 C.3       7 UNK        -0.1927 
     47 C          27.3223   31.3873    2.5317 C.2       7 UNK         0.5013 
     48 O          26.5368   32.2218    2.9845 O.2       7 UNK        -0.5193 
     49 N          28.2603   30.7813    3.2656 N.am      8 UNK        -0.4253 
     50 CA         28.5118   30.9669    4.6881 C.3       8 UNK         0.0242 
     51 CB         29.3847   32.2172    4.9034 C.3       8 UNK        -0.2000 
     52 C          29.2154   29.7093    5.2059 C.2       8 UNK         0.4948 
     53 O          29.7300   28.9200    4.4060 O.2       8 UNK        -0.5275 
     54 N          29.2637   29.5521    6.5338 N.am      9 UNK        -0.4246 
     55 CA         29.9219   28.4406    7.2297 C.3       9 UNK         0.0261 
     56 CB         29.3107   28.2999    8.6365 C.3       9 UNK        -0.1959 
     57 C          31.4614   28.5788    7.2569 C.2       9 UNK         0.5033 
     58 O          32.0751   28.4866    8.3218 O.2       9 UNK        -0.5390 
     59 N          32.0518   28.8141    6.0820 N.am      10 UNK        -0.4215 
     60 CA         33.4893   28.9261    5.8444 C.3       10 UNK         0.0240 
     61 CB         33.7096   29.9743    4.7387 C.3       10 UNK        -0.1982 
     62 C          34.0851   27.5631    5.4525 C.2       10 UNK         0.4970 
     63 O          33.3397   26.6169    5.1921 O.2       10 UNK        -0.4916 
     64 N          35.4220   27.4999    5.3933 N.am      11 UNK        -0.4279 
     65 CA         36.2225   26.3070    5.0476 C.3       11 UNK         0.1003 
     66 C          36.1763   25.1642    6.1107 C.2       11 UNK         0.5709 
     67 N          35.6909   25.4029    7.3237 N.am      11 UNK        -0.7358 
     68 O          36.6232   24.0494    5.8499 O.2       11 UNK        -0.4999 
     69 C69        35.9706   25.7812    3.6007 C.3       12 UNK        -0.0954 
     70 S70        36.3336   27.0048    2.2937 S.3       12 UNK        -0.2268 
     71 C71        34.6845   27.6165    1.8188 C.3       12 UNK         0.0203 
     72 H72        30.5545   25.4347    7.8711 H         1 UNK         0.0888 
     73 H73        31.3195   23.9705    7.2541 H         1 UNK         0.0888 
     74 H74        31.3565   25.4564    6.3016 H         1 UNK         0.0888 
     75 H75        30.2726   24.5660    4.4502 H         1 UNK         0.3017 
     76 H76        27.8534   23.0428    4.7021 H         1 UNK         0.0873 
     77 H77        29.3278   22.5044    2.8798 H         1 UNK         0.0745 
     78 H78        27.8216   23.0504    2.2204 H         1 UNK         0.0745 
     79 H79        31.2006   22.9478    1.1607 H         1 UNK         0.0705 
     80 H80        31.6007   23.7108    2.6826 H         1 UNK         0.0705 
     81 H81        32.8612   25.8087    2.7509 H         1 UNK         0.1334 
     82 H82        34.6458   27.2295   -0.8815 H         1 UNK         0.1417 
     83 H83        31.7036   24.1076   -1.0035 H         1 UNK         0.1562 
     84 H84        32.8849   24.7210   -3.0320 H         1 UNK         0.0748 
     85 H85        34.3092   25.7235   -2.9314 H         1 UNK         0.0748 
     86 H86        30.5331   25.8769   -2.2471 H         1 UNK         0.0940 
     87 H87        30.3039   25.9983   -3.9673 H         1 UNK         0.0940 
     88 H88        29.9454   28.5438   -3.6290 H         1 UNK         0.0703 
     89 H89        28.0026   26.5228   -2.7213 H         1 UNK         0.3081 
     90 H90        25.2229   28.5907   -3.2773 H         1 UNK         0.0719 
     91 H91        25.5733   27.6856   -5.5790 H         1 UNK         0.0809 
     92 H92        26.0596   26.1324   -4.9147 H         1 UNK         0.0809 
     93 H93        24.4098   26.7167   -4.6914 H         1 UNK         0.0809 
     94 H94        25.5252   25.8409   -2.5000 H         1 UNK         0.2990 
     95 H95        24.6400   25.8734    0.2582 H         1 UNK         0.0690 
     96 H96        26.3292   23.9953    0.3644 H         1 UNK         0.0788 
     97 H97        27.3786   24.8914   -0.7266 H         1 UNK         0.0788 
     98 H98        25.8014   24.3162   -1.2699 H         1 UNK         0.0788 
     99 H99        27.3448   26.2457    1.3598 H         1 UNK         0.2993 
    100 H100       27.3516   28.1777    3.2583 H         1 UNK         0.0949 
    101 H101       25.3651   28.7534    4.6027 H         1 UNK         0.0767 
    102 H102       25.1716   27.0808    5.1111 H         1 UNK         0.0767 
    103 H103       26.5728   28.0102    5.6393 H         1 UNK         0.0767 
    104 H104       28.5466   26.4019    3.8009 H         1 UNK         0.3013 
    105 H105       31.0222   29.8159   -2.2068 H         1 UNK         0.3121 
    106 H106       31.6001   31.0238   -0.4873 H         1 UNK         0.0774 
    107 H107       30.8666   28.6657    1.3276 H         1 UNK         0.0815 
    108 H108       32.4314   28.9719    0.5802 H         1 UNK         0.0815 
    109 H109       31.8034   30.0757    1.7930 H         1 UNK         0.0815 
    110 H110       28.4791   29.4656    0.2053 H         1 UNK         0.2987 
    111 H111       26.5271   30.1422    1.0325 H         1 UNK         0.0949 
    112 H112       26.5872   31.7435   -0.8905 H         1 UNK         0.0806 
    113 H113       25.6677   32.3751    0.4636 H         1 UNK         0.0806 
    114 H114       27.2903   32.9759    0.1588 H         1 UNK         0.0806 
    115 H115       28.8510   30.0810    2.8340 H         1 UNK         0.3010 
    116 H116       27.5604   31.0759    5.2134 H         1 UNK         0.0829 
    117 H117       28.8913   33.1145    4.5291 H         1 UNK         0.0813 
    118 H118       29.5903   32.3815    5.9617 H         1 UNK         0.0813 
    119 H119       30.3447   32.1287    4.3925 H         1 UNK         0.0813 
    120 H120       28.8541   30.2647    7.1212 H         1 UNK         0.3038 
    121 H121       29.6970   27.5238    6.6822 H         1 UNK         0.0769 
    122 H122       29.7387   27.4495    9.1687 H         1 UNK         0.0811 
    123 H123       28.2340   28.1365    8.5864 H         1 UNK         0.0811 
    124 H124       29.4893   29.1876    9.2445 H         1 UNK         0.0811 
    125 H125       31.4521   28.8107    5.2609 H         1 UNK         0.3204 
    126 H126       33.9884   29.2657    6.7545 H         1 UNK         0.0748 
    127 H127       34.7647   30.0760    4.4819 H         1 UNK         0.0771 
    128 H128       33.1717   29.7181    3.8260 H         1 UNK         0.0771 
    129 H129       33.3620   30.9571    5.0581 H         1 UNK         0.0771 
    130 H130       35.9581   28.3232    5.6261 H         1 UNK         0.2980 
    131 H131       37.2574   26.6489    5.0790 H         1 UNK         0.0545 
    132 H132       35.6805   24.6597    8.0041 H         1 UNK         0.3459 
    133 H133       35.3297   26.3119    7.5623 H         1 UNK         0.3459 
    134 H134       36.6192   24.9281    3.3950 H         1 UNK         0.0616 
    135 H135       34.9570   25.4004    3.4989 H         1 UNK         0.0616 
    136 H136       34.1327   27.9191    2.7045 H         1 UNK         0.0634 
    137 H137       34.8156   28.5235    1.2270 H         1 UNK         0.0634 
@<TRIPOS>BOND
     1    1    2 1    
     2    1   72 1    
     3    1   73 1    
     4    1   74 1    
     5    2    3 2    
     6    2    4 am   BACKBONE|DICT|INTERRES
     7    4    5 1    
     8    4   75 1    
     9    5    6 1    
    10    5   35 1    
    11    5   76 1    
    12    6    7 1    
    13    6   77 1    
    14    6   78 1    
    15    7    8 1    
    16    8    9 1    
    17    8   79 1    
    18    8   80 1    
    19    9   10 ar   
    20    9   14 ar   
    21   10   11 ar   
    22   10   81 1    
    23   11   12 ar   
    24   11   71 1    
    25   12   13 ar   
    26   12   82 1    
    27   13   14 ar   
    28   13   15 1    
    29   14   83 1    
    30   15   16 1    
    31   15   84 1    
    32   15   85 1    
    33   16   17 1    
    34   17   18 1    
    35   17   86 1    
    36   17   87 1    
    37   18   19 1    
    38   18   37 1    
    39   18   88 1    
    40   19   20 am   BACKBONE|DICT|INTERRES
    41   19   89 1    
    42   20   21 2    
    43   20   22 1    
    44   22   23 1    
    45   22   24 1    
    46   22   90 1    
    47   23   91 1    
    48   23   92 1    
    49   23   93 1    
    50   24   25 am   BACKBONE|DICT|INTERRES
    51   24   94 1    
    52   25   26 2    
    53   25   27 1    
    54   27   28 1    
    55   27   29 1    
    56   27   95 1    
    57   28   96 1    
    58   28   97 1    
    59   28   98 1    
    60   29   30 am   BACKBONE|DICT|INTERRES
    61   29   99 1    
    62   30   31 2    
    63   30   32 1    
    64   32   33 1    
    65   32   34 1    
    66   32  100 1    
    67   33  101 1    
    68   33  102 1    
    69   33  103 1    
    70   34   35 am   BACKBONE|DICT|INTERRES
    71   34  104 1    
    72   35   36 2    
    73   37   38 2    
    74   37   39 am   BACKBONE|DICT|INTERRES
    75   39   40 1    
    76   39  105 1    
    77   40   41 1    
    78   40   42 1    
    79   40  106 1    
    80   41  107 1    
    81   41  108 1    
    82   41  109 1    
    83   42   43 2    
    84   42   44 am   BACKBONE|DICT|INTERRES
    85   44   45 1    
    86   44  110 1    
    87   45   46 1    
    88   45   47 1    
    89   45  111 1    
    90   46  112 1    
    91   46  113 1    
    92   46  114 1    
    93   47   48 2    
    94   47   49 am   BACKBONE|DICT|INTERRES
    95   49   50 1    
    96   49  115 1    
    97   50   51 1    
    98   50   52 1    
    99   50  116 1    
   100   51  117 1    
   101   51  118 1    
   102   51  119 1    
   103   52   53 2    
   104   52   54 am   BACKBONE|DICT|INTERRES
   105   54   55 1    
   106   54  120 1    
   107   55   56 1    
   108   55   57 1    
   109   55  121 1    
   110   56  122 1    
   111   56  123 1    
   112   56  124 1    
   113   57   58 2    
   114   57   59 am   BACKBONE|DICT|INTERRES
   115   59   60 1    
   116   59  125 1    
   117   60   61 1    
   118   60   62 1    
   119   60  126 1    
   120   61  127 1    
   121   61  128 1    
   122   61  129 1    
   123   62   63 2    
   124   62   64 am   BACKBONE|DICT|INTERRES
   125   64   65 1    
   126   64  130 1    
   127   65   66 1    
   128   65   69 1    
   129   65  131 1    
   130   66   67 am   BACKBONE|DICT|INTERRES
   131   66   68 2    
   132   67  132 1    
   133   67  133 1    
   134   69   70 1    
   135   69  134 1    
   136   69  135 1    
   137   70   71 1    
   138   71  136 1    
   139   71  137 1    
@<TRIPOS>SUBSTRUCTURE
     1 UNK         1 GROUP             0       ****    0 ROOT    
