@<TRIPOS>MOLECULE
3R136
137   139    1
SMALL
USER_CHARGES


@<TRIPOS>ATOM
      1 CA         32.1119   28.8060   -0.4393 C.3       0 UNK        -0.1979 
      2 C          31.5366   27.5198   -1.0130 C.2       0 UNK         0.4864 
      3 O          31.4940   27.3614   -2.2334 O.2       0 UNK        -0.5359 
      4 N          31.0975   26.6124   -0.1340 N.am      1 UNK        -0.4318 
      5 CA         30.4224   25.3513   -0.4372 C.3       1 UNK         0.0824 
      6 C6         31.2502   24.4043   -1.3526 C.3       12 UNK        -0.0944 
      7 S7         30.8065   22.6476   -1.1375 S.3       12 UNK        -0.2672 
      8 C8         32.0486   22.0935    0.0722 C.3       12 UNK         0.0333 
      9 C9         31.8255   22.6841    1.4594 C.ar      12 UNK        -0.0807 
     10 C10        32.7742   23.5466    2.0210 C.ar      12 UNK        -0.0894 
     11 C11        32.6199   24.0212    3.3282 C.ar      12 UNK        -0.0804 
     12 C12        31.4975   23.6334    4.0652 C.ar      12 UNK        -0.0824 
     13 C13        30.5172   22.8124    3.5015 C.ar      12 UNK        -0.0762 
     14 C14        30.6914   22.3321    2.2003 C.ar      12 UNK        -0.0782 
     15 C15        29.2937   22.4155    4.3193 C.3       12 UNK         0.0230 
     16 S16        27.8054   23.3782    3.8858 S.3       12 UNK        -0.2608 
     17 C17        28.3071   25.0925    4.2655 C.3       12 UNK        -0.0989 
     18 CA         28.3287   25.9529    2.9746 C.3       5 UNK         0.0716 
     19 N          27.0014   26.2782    2.4341 N.am      5 UNK        -0.4135 
     20 C          26.0241   26.9815    3.0261 C.2       4 UNK         0.5031 
     21 O          26.0917   27.4130    4.1786 O.2       4 UNK        -0.5229 
     22 CA         24.7723   27.3048    2.1933 C.3       4 UNK         0.0329 
     23 CB         24.8653   28.7308    1.6263 C.3       4 UNK        -0.2001 
     24 N          24.5386   26.3641    1.0956 N.am      4 UNK        -0.4303 
     25 C          23.9876   25.1510    1.2447 C.2       3 UNK         0.5044 
     26 O          23.6136   24.6963    2.3262 O.2       3 UNK        -0.5152 
     27 CA         23.8087   24.3035   -0.0292 C.3       3 UNK         0.0319 
     28 CB         22.4010   24.5038   -0.6138 C.3       3 UNK        -0.2001 
     29 N          24.8072   24.5837   -1.0668 N.am      3 UNK        -0.4354 
     30 C          26.1074   24.2773   -0.9639 C.2       2 UNK         0.4964 
     31 O          26.5879   23.7021    0.0151 O.2       2 UNK        -0.5047 
     32 CA         27.0156   24.6577   -2.1531 C.3       2 UNK         0.0288 
     33 CB         26.5666   25.9419   -2.8895 C.3       2 UNK        -0.2113 
     34 N          28.4246   24.7479   -1.7510 N.am      2 UNK        -0.4145 
     35 C          28.9584   25.6017   -0.8654 C.2       1 UNK         0.5006 
     36 O          28.3253   26.5227   -0.3412 O.2       1 UNK        -0.5103 
     37 C          29.2104   27.2094    3.1068 C.2       5 UNK         0.5055 
     38 O          30.2113   27.3249    2.4004 O.2       5 UNK        -0.5220 
     39 N          28.8093   28.1633    3.9538 N.am      6 UNK        -0.4450 
     40 CA         29.4604   29.4645    4.1189 C.3       6 UNK         0.0367 
     41 CB         29.2633   29.9446    5.5679 C.3       6 UNK        -0.1929 
     42 C          28.9499   30.4752    3.0730 C.2       6 UNK         0.5070 
     43 O          28.5068   31.5677    3.4292 O.2       6 UNK        -0.5237 
     44 N          28.9924   30.0809    1.7927 N.am      7 UNK        -0.4739 
     45 CA         28.4969   30.8654    0.6560 C.3       7 UNK         0.0276 
     46 CB         28.2880   29.9314   -0.5476 C.3       7 UNK        -0.1927 
     47 C          29.4087   32.0425    0.2633 C.2       7 UNK         0.5013 
     48 O          28.9424   32.9577   -0.4163 O.2       7 UNK        -0.5193 
     49 N          30.6795   31.9975    0.6808 N.am      8 UNK        -0.4253 
     50 CA         31.6977   33.0172    0.4246 C.3       8 UNK         0.0242 
     51 CB         32.1460   33.0131   -1.0516 C.3       8 UNK        -0.2000 
     52 C          32.8880   32.8016    1.3631 C.2       8 UNK         0.4948 
     53 O          33.3038   33.7392    2.0445 O.2       8 UNK        -0.5275 
     54 N          33.3980   31.5618    1.3953 N.am      9 UNK        -0.4246 
     55 CA         34.4331   31.1079    2.3250 C.3       9 UNK         0.0261 
     56 CB         34.9389   29.7260    1.8783 C.3       9 UNK        -0.1959 
     57 C          33.9015   31.0369    3.7653 C.2       9 UNK         0.5033 
     58 O          32.7105   30.7846    3.9696 O.2       9 UNK        -0.5390 
     59 N          34.8013   31.2142    4.7396 N.am      10 UNK        -0.4215 
     60 CA         34.5136   31.1835    6.1766 C.3       10 UNK         0.0240 
     61 CB         35.6143   31.9637    6.9212 C.3       10 UNK        -0.1982 
     62 C          34.3341   29.7483    6.7141 C.2       10 UNK         0.4970 
     63 O          35.0412   29.3414    7.6379 O.2       10 UNK        -0.4916 
     64 N          33.3918   29.0065    6.1226 N.am      11 UNK        -0.4279 
     65 CA         33.0121   27.6429    6.5231 C.3       11 UNK         0.1003 
     66 C          32.2049   27.5632    7.8533 C.2       11 UNK         0.5709 
     67 N          31.7069   28.6651    8.4031 N.am      11 UNK        -0.7358 
     68 O          32.0339   26.4767    8.4008 O.2       11 UNK        -0.4999 
     69 C69        32.2669   26.9002    5.3854 C.3       12 UNK        -0.0954 
     70 S70        33.2798   26.6785    3.8821 S.3       12 UNK        -0.2268 
     71 C71        33.6923   24.9044    3.9587 C.3       12 UNK         0.0203 
     72 H72        31.9287   28.8817    0.6327 H         1 UNK         0.0888 
     73 H73        33.1876   28.8376   -0.6104 H         1 UNK         0.0888 
     74 H74        31.6616   29.6680   -0.9299 H         1 UNK         0.0888 
     75 H75        31.0594   26.8648    0.8529 H         1 UNK         0.3017 
     76 H76        30.3435   24.8655    0.5348 H         1 UNK         0.0873 
     77 H77        32.3135   24.5128   -1.1327 H         1 UNK         0.0745 
     78 H78        31.1431   24.6765   -2.4042 H         1 UNK         0.0745 
     79 H79        33.0468   22.3291   -0.3005 H         1 UNK         0.0705 
     80 H80        32.0024   21.0059    0.1433 H         1 UNK         0.0705 
     81 H81        33.6504   23.8256    1.4517 H         1 UNK         0.1334 
     82 H82        31.3840   23.9608    5.0873 H         1 UNK         0.1417 
     83 H83        29.9492   21.6752    1.7667 H         1 UNK         0.1562 
     84 H84        29.4913   22.5274    5.3866 H         1 UNK         0.0748 
     85 H85        29.0825   21.3566    4.1629 H         1 UNK         0.0748 
     86 H86        29.2842   25.0854    4.7481 H         1 UNK         0.0940 
     87 H87        27.6235   25.5010    5.0103 H         1 UNK         0.0940 
     88 H88        28.8071   25.3502    2.2030 H         1 UNK         0.0703 
     89 H89        26.8690   26.0073    1.4685 H         1 UNK         0.3081 
     90 H90        23.9156   27.2691    2.8701 H         1 UNK         0.0719 
     91 H91        23.9453   29.0159    1.1159 H         1 UNK         0.0809 
     92 H92        25.0316   29.4589    2.4218 H         1 UNK         0.0809 
     93 H93        25.6870   28.8308    0.9185 H         1 UNK         0.0809 
     94 H94        24.8092   26.6592    0.1689 H         1 UNK         0.2990 
     95 H95        23.9094   23.2552    0.2606 H         1 UNK         0.0690 
     96 H96        21.6346   24.2764    0.1288 H         1 UNK         0.0788 
     97 H97        22.2274   23.8467   -1.4662 H         1 UNK         0.0788 
     98 H98        22.2410   25.5316   -0.9422 H         1 UNK         0.0788 
     99 H99        24.4801   25.0426   -1.9051 H         1 UNK         0.2993 
    100 H100       26.9557   23.8278   -2.8587 H         1 UNK         0.0949 
    101 H101       26.4616   26.7890   -2.2105 H         1 UNK         0.0767 
    102 H102       27.2866   26.2244   -3.6578 H         1 UNK         0.0767 
    103 H103       25.6098   25.8010   -3.3930 H         1 UNK         0.0767 
    104 H104       29.0150   23.9852   -2.0576 H         1 UNK         0.3013 
    105 H105       27.9033   28.0376    4.3988 H         1 UNK         0.3121 
    106 H106       30.5328   29.3529    3.9520 H         1 UNK         0.0774 
    107 H107       28.2103   30.1095    5.7988 H         1 UNK         0.0815 
    108 H108       29.7897   30.8843    5.7406 H         1 UNK         0.0815 
    109 H109       29.6541   29.2198    6.2819 H         1 UNK         0.0815 
    110 H110       29.3573   29.1560    1.5965 H         1 UNK         0.2987 
    111 H111       27.5272   31.2867    0.9310 H         1 UNK         0.0949 
    112 H112       29.2222   29.4846   -0.8849 H         1 UNK         0.0806 
    113 H113       27.6033   29.1185   -0.3118 H         1 UNK         0.0806 
    114 H114       27.8637   30.4732   -1.3940 H         1 UNK         0.0806 
    115 H115       30.9360   31.2586    1.3206 H         1 UNK         0.3010 
    116 H116       31.2684   33.9945    0.6566 H         1 UNK         0.0829 
    117 H117       31.3276   33.2817   -1.7194 H         1 UNK         0.0813 
    118 H118       32.9433   33.7390   -1.2175 H         1 UNK         0.0813 
    119 H119       32.5223   32.0384   -1.3626 H         1 UNK         0.0813 
    120 H120       33.0158   30.8641    0.7779 H         1 UNK         0.3038 
    121 H121       35.2615   31.8187    2.2873 H         1 UNK         0.0769 
    122 H122       34.1496   28.9742    1.9175 H         1 UNK         0.0811 
    123 H123       35.7461   29.3767    2.5234 H         1 UNK         0.0811 
    124 H124       35.3299   29.7532    0.8610 H         1 UNK         0.0811 
    125 H125       35.7660   31.3687    4.4825 H         1 UNK         0.3204 
    126 H126       33.5695   31.7050    6.3494 H         1 UNK         0.0748 
    127 H127       36.5943   31.5016    6.7951 H         1 UNK         0.0771 
    128 H128       35.6800   32.9928    6.5670 H         1 UNK         0.0771 
    129 H129       35.4085   32.0064    7.9917 H         1 UNK         0.0771 
    130 H130       32.8836   29.4170    5.3449 H         1 UNK         0.2980 
    131 H131       33.9368   27.0947    6.7132 H         1 UNK         0.0545 
    132 H132       31.8453   29.5629    7.9699 H         1 UNK         0.3459 
    133 H133       31.1928   28.5943    9.2668 H         1 UNK         0.3459 
    134 H134       31.9299   25.9266    5.7337 H         1 UNK         0.0616 
    135 H135       31.3647   27.4447    5.1124 H         1 UNK         0.0616 
    136 H136       33.8647   24.6089    4.9947 H         1 UNK         0.0634 
    137 H137       34.6425   24.7541    3.4442 H         1 UNK         0.0634 
@<TRIPOS>BOND
     1    1    2 1    
     2    1   72 1    
     3    1   73 1    
     4    1   74 1    
     5    2    3 2    
     6    2    4 am   BACKBONE|DICT|INTERRES
     7    4    5 1    
     8    4   75 1    
     9    5    6 1    
    10    5   35 1    
    11    5   76 1    
    12    6    7 1    
    13    6   77 1    
    14    6   78 1    
    15    7    8 1    
    16    8    9 1    
    17    8   79 1    
    18    8   80 1    
    19    9   10 ar   
    20    9   14 ar   
    21   10   11 ar   
    22   10   81 1    
    23   11   12 ar   
    24   11   71 1    
    25   12   13 ar   
    26   12   82 1    
    27   13   14 ar   
    28   13   15 1    
    29   14   83 1    
    30   15   16 1    
    31   15   84 1    
    32   15   85 1    
    33   16   17 1    
    34   17   18 1    
    35   17   86 1    
    36   17   87 1    
    37   18   19 1    
    38   18   37 1    
    39   18   88 1    
    40   19   20 am   BACKBONE|DICT|INTERRES
    41   19   89 1    
    42   20   21 2    
    43   20   22 1    
    44   22   23 1    
    45   22   24 1    
    46   22   90 1    
    47   23   91 1    
    48   23   92 1    
    49   23   93 1    
    50   24   25 am   BACKBONE|DICT|INTERRES
    51   24   94 1    
    52   25   26 2    
    53   25   27 1    
    54   27   28 1    
    55   27   29 1    
    56   27   95 1    
    57   28   96 1    
    58   28   97 1    
    59   28   98 1    
    60   29   30 am   BACKBONE|DICT|INTERRES
    61   29   99 1    
    62   30   31 2    
    63   30   32 1    
    64   32   33 1    
    65   32   34 1    
    66   32  100 1    
    67   33  101 1    
    68   33  102 1    
    69   33  103 1    
    70   34   35 am   BACKBONE|DICT|INTERRES
    71   34  104 1    
    72   35   36 2    
    73   37   38 2    
    74   37   39 am   BACKBONE|DICT|INTERRES
    75   39   40 1    
    76   39  105 1    
    77   40   41 1    
    78   40   42 1    
    79   40  106 1    
    80   41  107 1    
    81   41  108 1    
    82   41  109 1    
    83   42   43 2    
    84   42   44 am   BACKBONE|DICT|INTERRES
    85   44   45 1    
    86   44  110 1    
    87   45   46 1    
    88   45   47 1    
    89   45  111 1    
    90   46  112 1    
    91   46  113 1    
    92   46  114 1    
    93   47   48 2    
    94   47   49 am   BACKBONE|DICT|INTERRES
    95   49   50 1    
    96   49  115 1    
    97   50   51 1    
    98   50   52 1    
    99   50  116 1    
   100   51  117 1    
   101   51  118 1    
   102   51  119 1    
   103   52   53 2    
   104   52   54 am   BACKBONE|DICT|INTERRES
   105   54   55 1    
   106   54  120 1    
   107   55   56 1    
   108   55   57 1    
   109   55  121 1    
   110   56  122 1    
   111   56  123 1    
   112   56  124 1    
   113   57   58 2    
   114   57   59 am   BACKBONE|DICT|INTERRES
   115   59   60 1    
   116   59  125 1    
   117   60   61 1    
   118   60   62 1    
   119   60  126 1    
   120   61  127 1    
   121   61  128 1    
   122   61  129 1    
   123   62   63 2    
   124   62   64 am   BACKBONE|DICT|INTERRES
   125   64   65 1    
   126   64  130 1    
   127   65   66 1    
   128   65   69 1    
   129   65  131 1    
   130   66   67 am   BACKBONE|DICT|INTERRES
   131   66   68 2    
   132   67  132 1    
   133   67  133 1    
   134   69   70 1    
   135   69  134 1    
   136   69  135 1    
   137   70   71 1    
   138   71  136 1    
   139   71  137 1    
@<TRIPOS>SUBSTRUCTURE
     1 UNK         1 GROUP             0       ****    0 ROOT    
