@<TRIPOS>MOLECULE
3R136
137   139    1
SMALL
USER_CHARGES


@<TRIPOS>ATOM
      1 CA         25.7204   17.9925   -0.7430 C.3       0 UNK        -0.1979 
      2 C          27.1809   18.2987   -1.0415 C.2       0 UNK         0.4864 
      3 O          27.6865   17.9028   -2.0934 O.2       0 UNK        -0.5359 
      4 N          27.8631   18.9911   -0.1210 N.am      1 UNK        -0.4318 
      5 CA         29.2483   19.4464   -0.2681 C.3       1 UNK         0.0824 
      6 C6         29.8922   19.7624    1.1086 C.3       12 UNK        -0.0944 
      7 S7         28.9997   21.0249    2.0813 S.3       12 UNK        -0.2672 
      8 C8         30.2718   21.4836    3.3098 C.3       12 UNK         0.0333 
      9 C9         29.9232   22.6985    4.1741 C.ar      12 UNK        -0.0807 
     10 C10        30.9625   23.4288    4.7611 C.ar      12 UNK        -0.0894 
     11 C11        30.6935   24.5316    5.5785 C.ar      12 UNK        -0.0804 
     12 C12        29.3679   24.9180    5.7991 C.ar      12 UNK        -0.0824 
     13 C13        28.3174   24.1988    5.2235 C.ar      12 UNK        -0.0762 
     14 C14        28.6005   23.0885    4.4224 C.ar      12 UNK        -0.0782 
     15 C15        26.8711   24.5896    5.4860 C.3       12 UNK         0.0230 
     16 S16        26.1247   25.3859    4.0277 S.3       12 UNK        -0.2608 
     17 C17        25.9287   27.1241    4.5570 C.3       12 UNK        -0.0989 
     18 CA         26.9940   28.0877    3.9653 C.3       5 UNK         0.0716 
     19 N          27.0878   27.9550    2.5067 N.am      5 UNK        -0.4135 
     20 C          28.1354   28.3007    1.7516 C.2       4 UNK         0.5031 
     21 O          29.1316   28.8866    2.1820 O.2       4 UNK        -0.5229 
     22 CA         28.0720   27.9060    0.2734 C.3       4 UNK         0.0329 
     23 CB         28.1686   29.1363   -0.6410 C.3       4 UNK        -0.2001 
     24 N          29.1978   27.0140    0.0133 N.am      4 UNK        -0.4303 
     25 C          29.0890   25.7224   -0.3128 C.2       3 UNK         0.5044 
     26 O          28.0229   25.1572   -0.5703 O.2       3 UNK        -0.5152 
     27 CA         30.3904   24.9151   -0.3062 C.3       3 UNK         0.0319 
     28 CB         30.7027   24.4216    1.1172 C.3       3 UNK        -0.2001 
     29 N          30.2539   23.7633   -1.1917 N.am      3 UNK        -0.4354 
     30 C          31.2462   23.1876   -1.8770 C.2       2 UNK         0.4964 
     31 O          32.4168   23.5716   -1.8386 O.2       2 UNK        -0.5047 
     32 CA         30.8678   21.9498   -2.7122 C.3       2 UNK         0.0288 
     33 CB         31.9891   21.5182   -3.6770 C.3       2 UNK        -0.2113 
     34 N          30.5379   20.8240   -1.8355 N.am      2 UNK        -0.4145 
     35 C          29.3494   20.6385   -1.2461 C.2       1 UNK         0.5006 
     36 O          28.3790   21.3807   -1.4295 O.2       1 UNK        -0.5103 
     37 C          26.7442   29.5531    4.3987 C.2       5 UNK         0.5055 
     38 O          25.7397   29.8370    5.0555 O.2       5 UNK        -0.5220 
     39 N          27.6439   30.4641    4.0154 N.am      6 UNK        -0.4450 
     40 CA         27.6056   31.8849    4.3454 C.3       6 UNK         0.0367 
     41 CB         27.0314   32.6714    3.1547 C.3       6 UNK        -0.1929 
     42 C          29.0258   32.3538    4.6619 C.2       6 UNK         0.5070 
     43 O          29.9698   31.9226    3.9961 O.2       6 UNK        -0.5237 
     44 N          29.1543   33.2681    5.6314 N.am      7 UNK        -0.4739 
     45 CA         30.4312   33.8507    6.0640 C.3       7 UNK         0.0276 
     46 CB         30.2108   34.6599    7.3521 C.3       7 UNK        -0.1927 
     47 C          31.1119   34.7202    4.9916 C.2       7 UNK         0.5013 
     48 O          32.3378   34.8275    4.9947 O.2       7 UNK        -0.5193 
     49 N          30.3116   35.3022    4.0861 N.am      8 UNK        -0.4253 
     50 CA         30.7816   36.0548    2.9203 C.3       8 UNK         0.0242 
     51 CB         29.6050   36.8262    2.3003 C.3       8 UNK        -0.2000 
     52 C          31.4556   35.1573    1.8671 C.2       8 UNK         0.4948 
     53 O          32.4168   35.5925    1.2320 O.2       8 UNK        -0.5275 
     54 N          30.9483   33.9262    1.7089 N.am      9 UNK        -0.4246 
     55 CA         31.5380   32.8952    0.8531 C.3       9 UNK         0.0261 
     56 CB         30.4484   31.9061    0.4144 C.3       9 UNK        -0.1959 
     57 C          32.6803   32.1513    1.5627 C.2       9 UNK         0.5033 
     58 O          33.6583   31.7897    0.9075 O.2       9 UNK        -0.5390 
     59 N          32.5276   31.9486    2.8803 N.am      10 UNK        -0.4215 
     60 CA         33.4242   31.2362    3.7928 C.3       10 UNK         0.0240 
     61 CB         34.7914   31.9446    3.9059 C.3       10 UNK        -0.1982 
     62 C          33.5266   29.7432    3.4363 C.2       10 UNK         0.4970 
     63 O          34.6320   29.2147    3.3020 O.2       10 UNK        -0.4916 
     64 N          32.3589   29.1002    3.2962 N.am      11 UNK        -0.4279 
     65 CA         32.1895   27.6820    2.9513 C.3       11 UNK         0.1003 
     66 C          32.6186   27.4094    1.4836 C.2       11 UNK         0.5709 
     67 N          33.6376   26.5975    1.2335 N.am      11 UNK        -0.7358 
     68 O          31.9692   27.8877    0.5559 O.2       11 UNK        -0.4999 
     69 C69        32.7747   26.7022    4.0108 C.3       12 UNK        -0.0954 
     70 S70        32.0392   26.9730    5.6587 S.3       12 UNK        -0.2268 
     71 C71        31.8315   25.2721    6.2687 C.3       12 UNK         0.0203 
     72 H72        25.4109   18.3878    0.2244 H         1 UNK         0.0888 
     73 H73        25.0815   18.4318   -1.5086 H         1 UNK         0.0888 
     74 H74        25.5559   16.9153   -0.7373 H         1 UNK         0.0888 
     75 H75        27.3909   19.3265    0.7068 H         1 UNK         0.3017 
     76 H76        29.8147   18.6233   -0.7099 H         1 UNK         0.0873 
     77 H77        29.9377   18.8507    1.7065 H         1 UNK         0.0745 
     78 H78        30.9288   20.0785    0.9770 H         1 UNK         0.0745 
     79 H79        30.4561   20.6292    3.9623 H         1 UNK         0.0705 
     80 H80        31.2045   21.6798    2.7785 H         1 UNK         0.0705 
     81 H81        31.9875   23.1263    4.5938 H         1 UNK         0.1334 
     82 H82        29.1575   25.7691    6.4324 H         1 UNK         0.1417 
     83 H83        27.7774   22.5331    3.9954 H         1 UNK         0.1562 
     84 H84        26.7972   25.2300    6.3655 H         1 UNK         0.0748 
     85 H85        26.2965   23.6929    5.7229 H         1 UNK         0.0748 
     86 H86        24.9285   27.4362    4.2492 H         1 UNK         0.0940 
     87 H87        25.9278   27.1802    5.6468 H         1 UNK         0.0940 
     88 H88        27.9600   27.7991    4.3865 H         1 UNK         0.0703 
     89 H89        26.3119   27.4810    2.0682 H         1 UNK         0.3081 
     90 H90        27.1199   27.4084    0.0765 H         1 UNK         0.0719 
     91 H91        27.4021   29.8725   -0.3957 H         1 UNK         0.0809 
     92 H92        29.1372   29.6247   -0.5511 H         1 UNK         0.0809 
     93 H93        28.0339   28.8597   -1.6867 H         1 UNK         0.0809 
     94 H94        30.1156   27.3923    0.2380 H         1 UNK         0.2990 
     95 H95        31.1975   25.5586   -0.6623 H         1 UNK         0.0690 
     96 H96        31.6649   23.9117    1.1633 H         1 UNK         0.0788 
     97 H97        29.9360   23.7307    1.4644 H         1 UNK         0.0788 
     98 H98        30.7303   25.2421    1.8330 H         1 UNK         0.0788 
     99 H99        29.3118   23.3917   -1.2706 H         1 UNK         0.2993 
    100 H100       29.9946   22.2113   -3.3146 H         1 UNK         0.0949 
    101 H101       31.6759   20.6776   -4.2965 H         1 UNK         0.0767 
    102 H102       32.2582   22.3330   -4.3507 H         1 UNK         0.0767 
    103 H103       32.8938   21.2229   -3.1438 H         1 UNK         0.0767 
    104 H104       31.2968   20.1955   -1.6136 H         1 UNK         0.3013 
    105 H105       28.4521   30.1539    3.4784 H         1 UNK         0.3121 
    106 H106       26.9801   32.0516    5.2251 H         1 UNK         0.0774 
    107 H107       27.6294   32.5323    2.2529 H         1 UNK         0.0815 
    108 H108       26.0126   32.3558    2.9295 H         1 UNK         0.0815 
    109 H109       26.9987   33.7407    3.3671 H         1 UNK         0.0815 
    110 H110       28.3273   33.5779    6.1229 H         1 UNK         0.2987 
    111 H111       31.1135   33.0278    6.2897 H         1 UNK         0.0949 
    112 H112       29.8145   34.0340    8.1519 H         1 UNK         0.0806 
    113 H113       31.1496   35.0842    7.7116 H         1 UNK         0.0806 
    114 H114       29.5179   35.4879    7.1970 H         1 UNK         0.0806 
    115 H115       29.3146   35.1798    4.1854 H         1 UNK         0.3010 
    116 H116       31.5244   36.7794    3.2616 H         1 UNK         0.0829 
    117 H117       28.8165   36.1565    1.9545 H         1 UNK         0.0813 
    118 H118       29.9340   37.4124    1.4410 H         1 UNK         0.0813 
    119 H119       29.1658   37.5223    3.0152 H         1 UNK         0.0813 
    120 H120       30.1726   33.6444    2.2904 H         1 UNK         0.3038 
    121 H121       31.9481   33.3658   -0.0434 H         1 UNK         0.0769 
    122 H122       29.6545   32.4059   -0.1404 H         1 UNK         0.0811 
    123 H123       29.9954   31.3926    1.2635 H         1 UNK         0.0811 
    124 H124       30.8721   31.1421   -0.2387 H         1 UNK         0.0811 
    125 H125       31.6254   32.1934    3.2847 H         1 UNK         0.3204 
    126 H126       32.9527   31.2829    4.7758 H         1 UNK         0.0748 
    127 H127       35.3522   31.9034    2.9718 H         1 UNK         0.0771 
    128 H128       34.6698   32.9932    4.1788 H         1 UNK         0.0771 
    129 H129       35.4082   31.4782    4.6750 H         1 UNK         0.0771 
    130 H130       31.5000   29.6274    3.3724 H         1 UNK         0.2980 
    131 H131       31.1143   27.5093    2.9571 H         1 UNK         0.0545 
    132 H132       34.1826   26.2045    1.9836 H         1 UNK         0.3459 
    133 H133       33.8904   26.4090    0.2767 H         1 UNK         0.3459 
    134 H134       33.8569   26.8052    4.0959 H         1 UNK         0.0616 
    135 H135       32.5870   25.6719    3.7058 H         1 UNK         0.0616 
    136 H136       32.7749   24.7350    6.1587 H         1 UNK         0.0634 
    137 H137       31.6273   25.3107    7.3396 H         1 UNK         0.0634 
@<TRIPOS>BOND
     1    1    2 1    
     2    1   72 1    
     3    1   73 1    
     4    1   74 1    
     5    2    3 2    
     6    2    4 am   BACKBONE|DICT|INTERRES
     7    4    5 1    
     8    4   75 1    
     9    5    6 1    
    10    5   35 1    
    11    5   76 1    
    12    6    7 1    
    13    6   77 1    
    14    6   78 1    
    15    7    8 1    
    16    8    9 1    
    17    8   79 1    
    18    8   80 1    
    19    9   10 ar   
    20    9   14 ar   
    21   10   11 ar   
    22   10   81 1    
    23   11   12 ar   
    24   11   71 1    
    25   12   13 ar   
    26   12   82 1    
    27   13   14 ar   
    28   13   15 1    
    29   14   83 1    
    30   15   16 1    
    31   15   84 1    
    32   15   85 1    
    33   16   17 1    
    34   17   18 1    
    35   17   86 1    
    36   17   87 1    
    37   18   19 1    
    38   18   37 1    
    39   18   88 1    
    40   19   20 am   BACKBONE|DICT|INTERRES
    41   19   89 1    
    42   20   21 2    
    43   20   22 1    
    44   22   23 1    
    45   22   24 1    
    46   22   90 1    
    47   23   91 1    
    48   23   92 1    
    49   23   93 1    
    50   24   25 am   BACKBONE|DICT|INTERRES
    51   24   94 1    
    52   25   26 2    
    53   25   27 1    
    54   27   28 1    
    55   27   29 1    
    56   27   95 1    
    57   28   96 1    
    58   28   97 1    
    59   28   98 1    
    60   29   30 am   BACKBONE|DICT|INTERRES
    61   29   99 1    
    62   30   31 2    
    63   30   32 1    
    64   32   33 1    
    65   32   34 1    
    66   32  100 1    
    67   33  101 1    
    68   33  102 1    
    69   33  103 1    
    70   34   35 am   BACKBONE|DICT|INTERRES
    71   34  104 1    
    72   35   36 2    
    73   37   38 2    
    74   37   39 am   BACKBONE|DICT|INTERRES
    75   39   40 1    
    76   39  105 1    
    77   40   41 1    
    78   40   42 1    
    79   40  106 1    
    80   41  107 1    
    81   41  108 1    
    82   41  109 1    
    83   42   43 2    
    84   42   44 am   BACKBONE|DICT|INTERRES
    85   44   45 1    
    86   44  110 1    
    87   45   46 1    
    88   45   47 1    
    89   45  111 1    
    90   46  112 1    
    91   46  113 1    
    92   46  114 1    
    93   47   48 2    
    94   47   49 am   BACKBONE|DICT|INTERRES
    95   49   50 1    
    96   49  115 1    
    97   50   51 1    
    98   50   52 1    
    99   50  116 1    
   100   51  117 1    
   101   51  118 1    
   102   51  119 1    
   103   52   53 2    
   104   52   54 am   BACKBONE|DICT|INTERRES
   105   54   55 1    
   106   54  120 1    
   107   55   56 1    
   108   55   57 1    
   109   55  121 1    
   110   56  122 1    
   111   56  123 1    
   112   56  124 1    
   113   57   58 2    
   114   57   59 am   BACKBONE|DICT|INTERRES
   115   59   60 1    
   116   59  125 1    
   117   60   61 1    
   118   60   62 1    
   119   60  126 1    
   120   61  127 1    
   121   61  128 1    
   122   61  129 1    
   123   62   63 2    
   124   62   64 am   BACKBONE|DICT|INTERRES
   125   64   65 1    
   126   64  130 1    
   127   65   66 1    
   128   65   69 1    
   129   65  131 1    
   130   66   67 am   BACKBONE|DICT|INTERRES
   131   66   68 2    
   132   67  132 1    
   133   67  133 1    
   134   69   70 1    
   135   69  134 1    
   136   69  135 1    
   137   70   71 1    
   138   71  136 1    
   139   71  137 1    
@<TRIPOS>SUBSTRUCTURE
     1 UNK         1 GROUP             0       ****    0 ROOT    
