@<TRIPOS>MOLECULE
3R136
137   139    1
SMALL
USER_CHARGES


@<TRIPOS>ATOM
      1 CA         32.6711   21.3124    4.3973 C.3       0 UNK        -0.1979 
      2 C          31.6645   21.2161    3.2604 C.2       0 UNK         0.4864 
      3 O          31.5086   20.1438    2.6751 O.2       0 UNK        -0.5359 
      4 N          30.9960   22.3341    2.9481 N.am      1 UNK        -0.4318 
      5 CA         30.0310   22.5113    1.8551 C.3       1 UNK         0.0824 
      6 C6         28.7403   21.6588    1.9892 C.3       12 UNK        -0.0944 
      7 S7         27.8001   22.0690    3.5009 S.3       12 UNK        -0.2672 
      8 C8         26.7690   23.4606    2.9150 C.3       12 UNK         0.0333 
      9 C9         26.9861   24.7655    3.6799 C.ar      12 UNK        -0.0807 
     10 C10        28.2636   25.1867    4.0661 C.ar      12 UNK        -0.0894 
     11 C11        28.4507   26.4201    4.6959 C.ar      12 UNK        -0.0804 
     12 C12        27.3456   27.2337    4.9597 C.ar      12 UNK        -0.0824 
     13 C13        26.0660   26.8381    4.5598 C.ar      12 UNK        -0.0762 
     14 C14        25.8925   25.5995    3.9344 C.ar      12 UNK        -0.0782 
     15 C15        24.8804   27.7721    4.7535 C.3       12 UNK         0.0230 
     16 S16        24.9980   29.2429    3.6809 S.3       12 UNK        -0.2608 
     17 C17        24.8617   28.5334    1.9982 C.3       12 UNK        -0.0989 
     18 CA         26.2322   28.1632    1.3572 C.3       5 UNK         0.0716 
     19 N          26.1227   27.3671    0.1416 N.am      5 UNK        -0.4135 
     20 C          25.6162   26.1387   -0.0011 C.2       4 UNK         0.5031 
     21 O          24.9661   25.5424    0.8565 O.2       4 UNK        -0.5229 
     22 CA         25.9282   25.4320   -1.3333 C.3       4 UNK         0.0329 
     23 CB         24.8690   25.7792   -2.3919 C.3       4 UNK        -0.2001 
     24 N          27.2690   25.7266   -1.8611 N.am      4 UNK        -0.4303 
     25 C          28.4166   25.4770   -1.2139 C.2       3 UNK         0.5044 
     26 O          28.4793   24.9868   -0.0820 O.2       3 UNK        -0.5152 
     27 CA         29.7148   25.8572   -1.9394 C.3       3 UNK         0.0319 
     28 CB         29.9900   27.3659   -1.8135 C.3       3 UNK        -0.2001 
     29 N          30.7885   25.1169   -1.2902 N.am      3 UNK        -0.4354 
     30 C          31.6915   24.3260   -1.8792 C.2       2 UNK         0.4964 
     31 O          31.8803   24.2783   -3.0949 O.2       2 UNK        -0.5047 
     32 CA         32.5045   23.4074   -0.9447 C.3       2 UNK         0.0288 
     33 CB         33.8869   24.0167   -0.6596 C.3       2 UNK        -0.2113 
     34 N          31.8186   23.1578    0.3283 N.am      2 UNK        -0.4145 
     35 C          30.7193   22.4029    0.4789 C.2       1 UNK         0.5006 
     36 O          30.2508   21.6892   -0.4107 O.2       1 UNK        -0.5103 
     37 C          27.0841   29.3911    0.9842 C.2       5 UNK         0.5055 
     38 O          27.2265   29.7050   -0.2021 O.2       5 UNK        -0.5220 
     39 N          27.6315   30.0573    2.0021 N.am      6 UNK        -0.4450 
     40 CA         28.3586   31.3220    1.9089 C.3       6 UNK         0.0367 
     41 CB         29.7649   31.1367    1.3032 C.3       6 UNK        -0.1929 
     42 C          28.4382   31.9528    3.3018 C.2       6 UNK         0.5070 
     43 O          28.1921   33.1503    3.4386 O.2       6 UNK        -0.5237 
     44 N          28.7674   31.1209    4.3054 N.am      7 UNK        -0.4739 
     45 CA         28.9129   31.4539    5.7307 C.3       7 UNK         0.0276 
     46 CB         27.5540   31.8586    6.3406 C.3       7 UNK        -0.1927 
     47 C          30.0305   32.4818    6.0087 C.2       7 UNK         0.5013 
     48 O          29.9461   33.2411    6.9757 O.2       7 UNK        -0.5193 
     49 N          31.0620   32.4776    5.1558 N.am      8 UNK        -0.4253 
     50 CA         32.2055   33.3853    5.1930 C.3       8 UNK         0.0242 
     51 CB         31.8685   34.6832    4.4313 C.3       8 UNK        -0.2000 
     52 C          33.4380   32.6602    4.6368 C.2       8 UNK         0.4948 
     53 O          34.0385   33.1172    3.6631 O.2       8 UNK        -0.5275 
     54 N          33.7589   31.5035    5.2356 N.am      9 UNK        -0.4246 
     55 CA         34.8960   30.6040    4.9700 C.3       9 UNK         0.0261 
     56 CB         36.2390   31.3151    5.2270 C.3       9 UNK        -0.1959 
     57 C          34.9060   29.9100    3.5932 C.2       9 UNK         0.5033 
     58 O          35.3290   28.7562    3.5165 O.2       9 UNK        -0.5390 
     59 N          34.4347   30.5926    2.5416 N.am      10 UNK        -0.4215 
     60 CA         34.4022   30.1365    1.1452 C.3       10 UNK         0.0240 
     61 CB         33.8156   31.2545    0.2680 C.3       10 UNK        -0.1982 
     62 C          33.6398   28.8192    0.9089 C.2       10 UNK         0.4970 
     63 O          33.9771   28.0873   -0.0221 O.2       10 UNK        -0.4916 
     64 N          32.6440   28.5396    1.7569 N.am      11 UNK        -0.4279 
     65 CA         31.9017   27.2745    1.7965 C.3       11 UNK         0.1003 
     66 C          32.6433   26.1054    2.5067 C.2       11 UNK         0.5709 
     67 N          33.8100   26.3020    3.1072 N.am      11 UNK        -0.7358 
     68 O          32.1515   24.9804    2.4912 O.2       11 UNK        -0.4999 
     69 C69        30.4638   27.4769    2.3384 C.3       12 UNK        -0.0954 
     70 S70        30.4017   28.2591    3.9911 S.3       12 UNK        -0.2268 
     71 C71        29.8528   26.8879    5.0568 C.3       12 UNK         0.0203 
     72 H72        32.7295   22.3213    4.8060 H         1 UNK         0.0888 
     73 H73        32.3915   20.6352    5.2040 H         1 UNK         0.0888 
     74 H74        33.6634   21.0325    4.0446 H         1 UNK         0.0888 
     75 H75        31.2431   23.1921    3.4254 H         1 UNK         0.3017 
     76 H76        29.7176   23.5545    1.9065 H         1 UNK         0.0873 
     77 H77        28.0887   21.8003    1.1249 H         1 UNK         0.0745 
     78 H78        28.9795   20.5948    2.0066 H         1 UNK         0.0745 
     79 H79        26.9567   23.6587    1.8592 H         1 UNK         0.0705 
     80 H80        25.7244   23.1534    2.9829 H         1 UNK         0.0705 
     81 H81        29.1217   24.5658    3.8584 H         1 UNK         0.1334 
     82 H82        27.4865   28.1942    5.4365 H         1 UNK         0.1417 
     83 H83        24.9066   25.3016    3.6035 H         1 UNK         0.1562 
     84 H84        24.8459   28.0957    5.7947 H         1 UNK         0.0748 
     85 H85        23.9375   27.2577    4.5607 H         1 UNK         0.0748 
     86 H86        24.3244   29.2405    1.3635 H         1 UNK         0.0940 
     87 H87        24.2167   27.6575    2.0653 H         1 UNK         0.0940 
     88 H88        26.8181   27.5661    2.0561 H         1 UNK         0.0703 
     89 H89        26.6095   27.7921   -0.6390 H         1 UNK         0.3081 
     90 H90        25.8832   24.3570   -1.1459 H         1 UNK         0.0719 
     91 H91        24.8878   26.8383   -2.6522 H         1 UNK         0.0809 
     92 H92        25.0176   25.2047   -3.3064 H         1 UNK         0.0809 
     93 H93        23.8659   25.5509   -2.0283 H         1 UNK         0.0809 
     94 H94        27.3115   26.1328   -2.7850 H         1 UNK         0.2990 
     95 H95        29.6328   25.5759   -2.9914 H         1 UNK         0.0690 
     96 H96        29.2336   27.9485   -2.3407 H         1 UNK         0.0788 
     97 H97        30.9577   27.6284   -2.2415 H         1 UNK         0.0788 
     98 H98        29.9852   27.6959   -0.7744 H         1 UNK         0.0788 
     99 H99        30.6471   25.0035   -0.2957 H         1 UNK         0.2993 
    100 H100       32.6419   22.4516   -1.4551 H         1 UNK         0.0949 
    101 H101       34.4848   23.3649   -0.0222 H         1 UNK         0.0767 
    102 H102       34.4447   24.1652   -1.5852 H         1 UNK         0.0767 
    103 H103       33.8089   24.9878   -0.1686 H         1 UNK         0.0767 
    104 H104       32.1226   23.7091    1.1277 H         1 UNK         0.3013 
    105 H105       27.3696   29.7734    2.9377 H         1 UNK         0.3121 
    106 H106       27.7869   31.9978    1.2690 H         1 UNK         0.0774 
    107 H107       30.2766   32.0963    1.2191 H         1 UNK         0.0815 
    108 H108       30.3914   30.4894    1.9143 H         1 UNK         0.0815 
    109 H109       29.7203   30.7090    0.3018 H         1 UNK         0.0815 
    110 H110       29.0216   30.1705    4.0654 H         1 UNK         0.2987 
    111 H111       29.2299   30.5346    6.2262 H         1 UNK         0.0949 
    112 H112       27.2011   32.8119    5.9463 H         1 UNK         0.0806 
    113 H113       26.7894   31.1083    6.1386 H         1 UNK         0.0806 
    114 H114       27.6259   31.9625    7.4239 H         1 UNK         0.0806 
    115 H115       31.0494   31.8090    4.3990 H         1 UNK         0.3010 
    116 H116       32.4346   33.6433    6.2294 H         1 UNK         0.0829 
    117 H117       31.0202   35.1985    4.8822 H         1 UNK         0.0813 
    118 H118       32.7113   35.3755    4.4434 H         1 UNK         0.0813 
    119 H119       31.6209   34.4840    3.3878 H         1 UNK         0.0813 
    120 H120       33.1610   31.2068    5.9954 H         1 UNK         0.3038 
    121 H121       34.8081   29.8046    5.7079 H         1 UNK         0.0769 
    122 H122       36.4112   32.1304    4.5236 H         1 UNK         0.0811 
    123 H123       37.0734   30.6196    5.1253 H         1 UNK         0.0811 
    124 H124       36.2833   31.7270    6.2352 H         1 UNK         0.0811 
    125 H125       34.1751   31.5619    2.7188 H         1 UNK         0.3204 
    126 H126       35.4364   29.9669    0.8390 H         1 UNK         0.0748 
    127 H127       33.8007   30.9618   -0.7829 H         1 UNK         0.0771 
    128 H128       32.7914   31.4962    0.5544 H         1 UNK         0.0771 
    129 H129       34.4075   32.1674    0.3401 H         1 UNK         0.0771 
    130 H130       32.4562   29.1808    2.5118 H         1 UNK         0.2980 
    131 H131       31.7922   26.9380    0.7646 H         1 UNK         0.0545 
    132 H132       34.2654   25.5209    3.5493 H         1 UNK         0.3459 
    133 H133       34.2508   27.2165    3.1347 H         1 UNK         0.3459 
    134 H134       29.9110   28.1206    1.6545 H         1 UNK         0.0616 
    135 H135       29.9171   26.5339    2.3350 H         1 UNK         0.0616 
    136 H136       29.8660   27.2204    6.0956 H         1 UNK         0.0634 
    137 H137       30.5708   26.0693    4.9855 H         1 UNK         0.0634 
@<TRIPOS>BOND
     1    1    2 1    
     2    1   72 1    
     3    1   73 1    
     4    1   74 1    
     5    2    3 2    
     6    2    4 am   BACKBONE|DICT|INTERRES
     7    4    5 1    
     8    4   75 1    
     9    5    6 1    
    10    5   35 1    
    11    5   76 1    
    12    6    7 1    
    13    6   77 1    
    14    6   78 1    
    15    7    8 1    
    16    8    9 1    
    17    8   79 1    
    18    8   80 1    
    19    9   10 ar   
    20    9   14 ar   
    21   10   11 ar   
    22   10   81 1    
    23   11   12 ar   
    24   11   71 1    
    25   12   13 ar   
    26   12   82 1    
    27   13   14 ar   
    28   13   15 1    
    29   14   83 1    
    30   15   16 1    
    31   15   84 1    
    32   15   85 1    
    33   16   17 1    
    34   17   18 1    
    35   17   86 1    
    36   17   87 1    
    37   18   19 1    
    38   18   37 1    
    39   18   88 1    
    40   19   20 am   BACKBONE|DICT|INTERRES
    41   19   89 1    
    42   20   21 2    
    43   20   22 1    
    44   22   23 1    
    45   22   24 1    
    46   22   90 1    
    47   23   91 1    
    48   23   92 1    
    49   23   93 1    
    50   24   25 am   BACKBONE|DICT|INTERRES
    51   24   94 1    
    52   25   26 2    
    53   25   27 1    
    54   27   28 1    
    55   27   29 1    
    56   27   95 1    
    57   28   96 1    
    58   28   97 1    
    59   28   98 1    
    60   29   30 am   BACKBONE|DICT|INTERRES
    61   29   99 1    
    62   30   31 2    
    63   30   32 1    
    64   32   33 1    
    65   32   34 1    
    66   32  100 1    
    67   33  101 1    
    68   33  102 1    
    69   33  103 1    
    70   34   35 am   BACKBONE|DICT|INTERRES
    71   34  104 1    
    72   35   36 2    
    73   37   38 2    
    74   37   39 am   BACKBONE|DICT|INTERRES
    75   39   40 1    
    76   39  105 1    
    77   40   41 1    
    78   40   42 1    
    79   40  106 1    
    80   41  107 1    
    81   41  108 1    
    82   41  109 1    
    83   42   43 2    
    84   42   44 am   BACKBONE|DICT|INTERRES
    85   44   45 1    
    86   44  110 1    
    87   45   46 1    
    88   45   47 1    
    89   45  111 1    
    90   46  112 1    
    91   46  113 1    
    92   46  114 1    
    93   47   48 2    
    94   47   49 am   BACKBONE|DICT|INTERRES
    95   49   50 1    
    96   49  115 1    
    97   50   51 1    
    98   50   52 1    
    99   50  116 1    
   100   51  117 1    
   101   51  118 1    
   102   51  119 1    
   103   52   53 2    
   104   52   54 am   BACKBONE|DICT|INTERRES
   105   54   55 1    
   106   54  120 1    
   107   55   56 1    
   108   55   57 1    
   109   55  121 1    
   110   56  122 1    
   111   56  123 1    
   112   56  124 1    
   113   57   58 2    
   114   57   59 am   BACKBONE|DICT|INTERRES
   115   59   60 1    
   116   59  125 1    
   117   60   61 1    
   118   60   62 1    
   119   60  126 1    
   120   61  127 1    
   121   61  128 1    
   122   61  129 1    
   123   62   63 2    
   124   62   64 am   BACKBONE|DICT|INTERRES
   125   64   65 1    
   126   64  130 1    
   127   65   66 1    
   128   65   69 1    
   129   65  131 1    
   130   66   67 am   BACKBONE|DICT|INTERRES
   131   66   68 2    
   132   67  132 1    
   133   67  133 1    
   134   69   70 1    
   135   69  134 1    
   136   69  135 1    
   137   70   71 1    
   138   71  136 1    
   139   71  137 1    
@<TRIPOS>SUBSTRUCTURE
     1 UNK         1 GROUP             0       ****    0 ROOT    
