@<TRIPOS>MOLECULE
3R136
137   139    1
SMALL
USER_CHARGES


@<TRIPOS>ATOM
      1 CA         28.1727   19.4804   -3.6165 C.3       0 UNK        -0.1979 
      2 C          28.8038   20.5499   -2.7374 C.2       0 UNK         0.4864 
      3 O          29.7947   21.1624   -3.1374 O.2       0 UNK        -0.5359 
      4 N          28.2373   20.7783   -1.5441 N.am      1 UNK        -0.4318 
      5 CA         28.7076   21.7686   -0.5665 C.3       1 UNK         0.0824 
      6 C6         28.1189   21.5010    0.8440 C.3       12 UNK        -0.0944 
      7 S7         29.1778   20.3663    1.8021 S.3       12 UNK        -0.2672 
      8 C8         29.2715   21.2050    3.4267 C.3       12 UNK         0.0333 
      9 C9         30.2895   22.3450    3.5541 C.ar      12 UNK        -0.0807 
     10 C10        30.7665   23.0740    2.4554 C.ar      12 UNK        -0.0894 
     11 C11        31.6544   24.1402    2.6302 C.ar      12 UNK        -0.0804 
     12 C12        32.1090   24.4477    3.9136 C.ar      12 UNK        -0.0824 
     13 C13        31.6300   23.7508    5.0239 C.ar      12 UNK        -0.0762 
     14 C14        30.7239   22.7023    4.8360 C.ar      12 UNK        -0.0782 
     15 C15        32.0790   24.1406    6.4273 C.3       12 UNK         0.0230 
     16 S16        31.8666   25.9212    6.7730 S.3       12 UNK        -0.2608 
     17 C17        30.0745   26.1515    6.5193 C.3       12 UNK        -0.0989 
     18 CA         29.7666   27.1196    5.3278 C.3       5 UNK         0.0716 
     19 N          29.2614   26.4263    4.1344 N.am      5 UNK        -0.4135 
     20 C          28.1032   25.7586    4.0429 C.2       4 UNK         0.5031 
     21 O          27.3195   25.6223    4.9843 O.2       4 UNK        -0.5229 
     22 CA         27.7582   25.1522    2.6698 C.3       4 UNK         0.0329 
     23 CB         26.2740   24.7476    2.5581 C.3       4 UNK        -0.2001 
     24 N          28.1320   25.9558    1.4981 N.am      4 UNK        -0.4303 
     25 C          27.8218   27.2382    1.2485 C.2       3 UNK         0.5044 
     26 O          27.3927   28.0261    2.0946 O.2       3 UNK        -0.5152 
     27 CA         27.9924   27.7293   -0.2038 C.3       3 UNK         0.0319 
     28 CB         29.2974   28.5225   -0.3766 C.3       3 UNK        -0.2001 
     29 N          27.9524   26.6666   -1.2108 N.am      3 UNK        -0.4354 
     30 C          26.9014   25.8846   -1.4970 C.2       2 UNK         0.4964 
     31 O          25.7879   26.0100   -0.9873 O.2       2 UNK        -0.5047 
     32 CA         27.1419   24.7540   -2.5175 C.3       2 UNK         0.0288 
     33 CB         28.1949   25.1158   -3.5895 C.3       2 UNK        -0.2113 
     34 N          27.4847   23.4707   -1.8871 N.am      2 UNK        -0.4145 
     35 C          28.4699   23.2295   -1.0052 C.2       1 UNK         0.5006 
     36 O          29.1961   24.1036   -0.5293 O.2       1 UNK        -0.5103 
     37 C          28.8980   28.3362    5.7442 C.2       5 UNK         0.5055 
     38 O          29.0520   28.8287    6.8632 O.2       5 UNK        -0.5220 
     39 N          28.0271   28.8262    4.8504 N.am      6 UNK        -0.4450 
     40 CA         27.1539   29.9747    5.0822 C.3       6 UNK         0.0367 
     41 CB         25.6896   29.5608    4.8530 C.3       6 UNK        -0.1929 
     42 C          27.5535   31.1349    4.1658 C.2       6 UNK         0.5070 
     43 O          27.8534   32.2225    4.6595 O.2       6 UNK        -0.5237 
     44 N          27.5532   30.8882    2.8502 N.am      7 UNK        -0.4739 
     45 CA         27.8981   31.8808    1.8312 C.3       7 UNK         0.0276 
     46 CB         27.1342   31.5516    0.5380 C.3       7 UNK        -0.1927 
     47 C          29.4147   31.9354    1.5859 C.2       7 UNK         0.5013 
     48 O          30.1595   31.0881    2.0884 O.2       7 UNK        -0.5193 
     49 N          29.8420   32.9418    0.8083 N.am      8 UNK        -0.4253 
     50 CA         31.2223   33.1855    0.3634 C.3       8 UNK         0.0242 
     51 CB         31.6502   32.1055   -0.6553 C.3       8 UNK        -0.2000 
     52 C          32.2190   33.3246    1.5311 C.2       8 UNK         0.4948 
     53 O          33.3157   32.7695    1.4683 O.2       8 UNK        -0.5275 
     54 N          31.7950   34.0232    2.5967 N.am      9 UNK        -0.4246 
     55 CA         32.4966   34.1777    3.8801 C.3       9 UNK         0.0261 
     56 CB         33.7660   35.0409    3.7115 C.3       9 UNK        -0.1959 
     57 C          32.7741   32.8263    4.5754 C.2       9 UNK         0.5033 
     58 O          33.8435   32.6442    5.1599 O.2       9 UNK        -0.5390 
     59 N          31.7962   31.9120    4.4830 N.am      10 UNK        -0.4215 
     60 CA         31.8211   30.5161    4.9255 C.3       10 UNK         0.0240 
     61 CB         31.9882   30.4037    6.4564 C.3       10 UNK        -0.1982 
     62 C          32.8423   29.6833    4.1311 C.2       10 UNK         0.4970 
     63 O          33.7460   29.0895    4.7221 O.2       10 UNK        -0.4916 
     64 N          32.6648   29.6611    2.8024 N.am      11 UNK        -0.4279 
     65 CA         33.5189   28.9497    1.8331 C.3       11 UNK         0.1003 
     66 C          34.9931   29.4622    1.8084 C.2       11 UNK         0.5709 
     67 N          35.2254   30.7660    1.8721 N.am      11 UNK        -0.7358 
     68 O          35.9416   28.6848    1.7184 O.2       11 UNK        -0.4999 
     69 C69        33.4238   27.3997    1.9624 C.3       12 UNK        -0.0954 
     70 S70        31.7489   26.7460    1.6628 S.3       12 UNK        -0.2268 
     71 C71        32.1078   24.9693    1.4362 C.3       12 UNK         0.0203 
     72 H72        28.8976   18.6954   -3.8303 H         1 UNK         0.0888 
     73 H73        27.3058   19.0207   -3.1421 H         1 UNK         0.0888 
     74 H74        27.8510   19.9143   -4.5629 H         1 UNK         0.0888 
     75 H75        27.4388   20.2267   -1.2631 H         1 UNK         0.3017 
     76 H76        29.7945   21.6699   -0.5152 H         1 UNK         0.0873 
     77 H77        27.1124   21.0838    0.7824 H         1 UNK         0.0745 
     78 H78        28.0083   22.4206    1.4157 H         1 UNK         0.0745 
     79 H79        28.2830   21.5805    3.6951 H         1 UNK         0.0705 
     80 H80        29.5123   20.4379    4.1643 H         1 UNK         0.0705 
     81 H81        30.4343   22.8363    1.4581 H         1 UNK         0.1334 
     82 H82        32.8040   25.2629    4.0569 H         1 UNK         0.1417 
     83 H83        30.3484   22.1628    5.6953 H         1 UNK         0.1562 
     84 H84        33.1322   23.8823    6.5444 H         1 UNK         0.0748 
     85 H85        31.5356   23.5712    7.1829 H         1 UNK         0.0748 
     86 H86        29.6675   26.5038    7.4684 H         1 UNK         0.0940 
     87 H87        29.6023   25.1794    6.3752 H         1 UNK         0.0940 
     88 H88        30.7030   27.5709    4.9979 H         1 UNK         0.0703 
     89 H89        29.8484   26.4767    3.3116 H         1 UNK         0.3081 
     90 H90        28.3498   24.2440    2.6098 H         1 UNK         0.0719 
     91 H91        26.0628   24.2730    1.5996 H         1 UNK         0.0809 
     92 H92        25.9972   24.0366    3.3375 H         1 UNK         0.0809 
     93 H93        25.6168   25.6128    2.6534 H         1 UNK         0.0809 
     94 H94        28.5471   25.4286    0.7336 H         1 UNK         0.2990 
     95 H95        27.1520   28.3958   -0.4031 H         1 UNK         0.0690 
     96 H96        29.2647   29.1460   -1.2700 H         1 UNK         0.0788 
     97 H97        30.1624   27.8663   -0.4643 H         1 UNK         0.0788 
     98 H98        29.4790   29.1802    0.4719 H         1 UNK         0.0788 
     99 H99        28.8300   26.4388   -1.6558 H         1 UNK         0.2993 
    100 H100       26.1912   24.6042   -3.0321 H         1 UNK         0.0949 
    101 H101       27.9696   26.0761   -4.0559 H         1 UNK         0.0767 
    102 H102       29.2042   25.1731   -3.1804 H         1 UNK         0.0767 
    103 H103       28.2100   24.3702   -4.3847 H         1 UNK         0.0767 
    104 H104       26.9256   22.6821   -2.1801 H         1 UNK         0.3013 
    105 H105       27.9564   28.3909    3.9345 H         1 UNK         0.3121 
    106 H106       27.2396   30.3287    6.1118 H         1 UNK         0.0774 
    107 H107       25.3861   28.7885    5.5600 H         1 UNK         0.0815 
    108 H108       25.0178   30.4091    4.9905 H         1 UNK         0.0815 
    109 H109       25.5246   29.1713    3.8477 H         1 UNK         0.0815 
    110 H110       27.3711   29.9430    2.5260 H         1 UNK         0.2987 
    111 H111       27.5778   32.8677    2.1734 H         1 UNK         0.0949 
    112 H112       27.2722   32.3283   -0.2149 H         1 UNK         0.0806 
    113 H113       27.4690   30.6150    0.0986 H         1 UNK         0.0806 
    114 H114       26.0624   31.4707    0.7201 H         1 UNK         0.0806 
    115 H115       29.1547   33.5957    0.4588 H         1 UNK         0.3010 
    116 H116       31.2224   34.1469   -0.1524 H         1 UNK         0.0829 
    117 H117       30.9498   32.0461   -1.4882 H         1 UNK         0.0813 
    118 H118       32.6322   32.3281   -1.0747 H         1 UNK         0.0813 
    119 H119       31.7088   31.1174   -0.1976 H         1 UNK         0.0813 
    120 H120       30.8753   34.4399    2.5471 H         1 UNK         0.3038 
    121 H121       31.8168   34.7204    4.5388 H         1 UNK         0.0769 
    122 H122       34.5238   34.5347    3.1125 H         1 UNK         0.0811 
    123 H123       34.2161   35.2669    4.6789 H         1 UNK         0.0811 
    124 H124       33.5387   35.9924    3.2311 H         1 UNK         0.0811 
    125 H125       30.9905   32.1538    3.9205 H         1 UNK         0.3204 
    126 H126       30.8404   30.1151    4.6721 H         1 UNK         0.0748 
    127 H127       31.9100   29.3644    6.7786 H         1 UNK         0.0771 
    128 H128       32.9570   30.7726    6.7934 H         1 UNK         0.0771 
    129 H129       31.2127   30.9624    6.9803 H         1 UNK         0.0771 
    130 H130       31.8870   30.1850    2.4113 H         1 UNK         0.2980 
    131 H131       33.1241   29.2089    0.8504 H         1 UNK         0.0545 
    132 H132       34.4602   31.4392    1.8631 H         1 UNK         0.3459 
    133 H133       36.1765   31.0950    1.8578 H         1 UNK         0.3459 
    134 H134       34.0856   26.9300    1.2329 H         1 UNK         0.0616 
    135 H135       33.7680   27.0695    2.9428 H         1 UNK         0.0616 
    136 H136       31.6063   24.6382    0.5263 H         1 UNK         0.0634 
    137 H137       33.1730   24.8049    1.2718 H         1 UNK         0.0634 
@<TRIPOS>BOND
     1    1    2 1    
     2    1   72 1    
     3    1   73 1    
     4    1   74 1    
     5    2    3 2    
     6    2    4 am   BACKBONE|DICT|INTERRES
     7    4    5 1    
     8    4   75 1    
     9    5    6 1    
    10    5   35 1    
    11    5   76 1    
    12    6    7 1    
    13    6   77 1    
    14    6   78 1    
    15    7    8 1    
    16    8    9 1    
    17    8   79 1    
    18    8   80 1    
    19    9   10 ar   
    20    9   14 ar   
    21   10   11 ar   
    22   10   81 1    
    23   11   12 ar   
    24   11   71 1    
    25   12   13 ar   
    26   12   82 1    
    27   13   14 ar   
    28   13   15 1    
    29   14   83 1    
    30   15   16 1    
    31   15   84 1    
    32   15   85 1    
    33   16   17 1    
    34   17   18 1    
    35   17   86 1    
    36   17   87 1    
    37   18   19 1    
    38   18   37 1    
    39   18   88 1    
    40   19   20 am   BACKBONE|DICT|INTERRES
    41   19   89 1    
    42   20   21 2    
    43   20   22 1    
    44   22   23 1    
    45   22   24 1    
    46   22   90 1    
    47   23   91 1    
    48   23   92 1    
    49   23   93 1    
    50   24   25 am   BACKBONE|DICT|INTERRES
    51   24   94 1    
    52   25   26 2    
    53   25   27 1    
    54   27   28 1    
    55   27   29 1    
    56   27   95 1    
    57   28   96 1    
    58   28   97 1    
    59   28   98 1    
    60   29   30 am   BACKBONE|DICT|INTERRES
    61   29   99 1    
    62   30   31 2    
    63   30   32 1    
    64   32   33 1    
    65   32   34 1    
    66   32  100 1    
    67   33  101 1    
    68   33  102 1    
    69   33  103 1    
    70   34   35 am   BACKBONE|DICT|INTERRES
    71   34  104 1    
    72   35   36 2    
    73   37   38 2    
    74   37   39 am   BACKBONE|DICT|INTERRES
    75   39   40 1    
    76   39  105 1    
    77   40   41 1    
    78   40   42 1    
    79   40  106 1    
    80   41  107 1    
    81   41  108 1    
    82   41  109 1    
    83   42   43 2    
    84   42   44 am   BACKBONE|DICT|INTERRES
    85   44   45 1    
    86   44  110 1    
    87   45   46 1    
    88   45   47 1    
    89   45  111 1    
    90   46  112 1    
    91   46  113 1    
    92   46  114 1    
    93   47   48 2    
    94   47   49 am   BACKBONE|DICT|INTERRES
    95   49   50 1    
    96   49  115 1    
    97   50   51 1    
    98   50   52 1    
    99   50  116 1    
   100   51  117 1    
   101   51  118 1    
   102   51  119 1    
   103   52   53 2    
   104   52   54 am   BACKBONE|DICT|INTERRES
   105   54   55 1    
   106   54  120 1    
   107   55   56 1    
   108   55   57 1    
   109   55  121 1    
   110   56  122 1    
   111   56  123 1    
   112   56  124 1    
   113   57   58 2    
   114   57   59 am   BACKBONE|DICT|INTERRES
   115   59   60 1    
   116   59  125 1    
   117   60   61 1    
   118   60   62 1    
   119   60  126 1    
   120   61  127 1    
   121   61  128 1    
   122   61  129 1    
   123   62   63 2    
   124   62   64 am   BACKBONE|DICT|INTERRES
   125   64   65 1    
   126   64  130 1    
   127   65   66 1    
   128   65   69 1    
   129   65  131 1    
   130   66   67 am   BACKBONE|DICT|INTERRES
   131   66   68 2    
   132   67  132 1    
   133   67  133 1    
   134   69   70 1    
   135   69  134 1    
   136   69  135 1    
   137   70   71 1    
   138   71  136 1    
   139   71  137 1    
@<TRIPOS>SUBSTRUCTURE
     1 UNK         1 GROUP             0       ****    0 ROOT    
