@<TRIPOS>MOLECULE
3R136
137   139    1
SMALL
USER_CHARGES


@<TRIPOS>ATOM
      1 CA         24.2938   23.6071    4.1658 C.3       0 UNK        -0.1979 
      2 C          25.3537   23.5961    3.0749 C.2       0 UNK         0.4864 
      3 O          25.4682   24.5712    2.3303 O.2       0 UNK        -0.5359 
      4 N          26.1231   22.5007    2.9760 N.am      1 UNK        -0.4318 
      5 CA         27.2034   22.2804    2.0036 C.3       1 UNK         0.0824 
      6 C6         28.4340   23.1903    2.2598 C.3       12 UNK        -0.0944 
      7 S7         29.2463   22.8489    3.8545 S.3       12 UNK        -0.2672 
      8 C8         30.9026   22.3217    3.3091 C.3       12 UNK         0.0333 
      9 C9         31.7272   23.4875    2.7775 C.ar      12 UNK        -0.0807 
     10 C10        32.2698   24.4170    3.6698 C.ar      12 UNK        -0.0894 
     11 C11        33.0452   25.4806    3.2016 C.ar      12 UNK        -0.0804 
     12 C12        33.2817   25.6066    1.8299 C.ar      12 UNK        -0.0824 
     13 C13        32.7555   24.6798    0.9247 C.ar      12 UNK        -0.0762 
     14 C14        31.9720   23.6246    1.4055 C.ar      12 UNK        -0.0782 
     15 C15        33.0993   24.7758   -0.5583 C.3       12 UNK         0.0230 
     16 S16        32.7711   26.4215   -1.2762 S.3       12 UNK        -0.2608 
     17 C17        31.0261   26.2939   -1.7841 C.3       12 UNK        -0.0989 
     18 CA         30.1098   27.2438   -0.9742 C.3       5 UNK         0.0716 
     19 N          28.9036   27.5947   -1.7110 N.am      5 UNK        -0.4135 
     20 C          28.5608   28.8199   -2.1229 C.2       4 UNK         0.5031 
     21 O          29.3121   29.7952   -2.0960 O.2       4 UNK        -0.5229 
     22 CA         27.1173   28.9919   -2.6306 C.3       4 UNK         0.0329 
     23 CB         27.0612   28.8381   -4.1588 C.3       4 UNK        -0.2001 
     24 N          26.1862   28.0408   -2.0160 N.am      4 UNK        -0.4303 
     25 C          25.7870   28.0574   -0.7373 C.2       3 UNK         0.5044 
     26 O          26.0895   28.9445    0.0605 O.2       3 UNK        -0.5152 
     27 CA         24.9323   26.8697   -0.2576 C.3       3 UNK         0.0319 
     28 CB         23.5024   26.9285   -0.8298 C.3       3 UNK        -0.2001 
     29 N          25.5588   25.5573   -0.4791 N.am      3 UNK        -0.4354 
     30 C          25.8521   24.9464   -1.6403 C.2       2 UNK         0.4964 
     31 O          25.5698   25.4172   -2.7434 O.2       2 UNK        -0.5047 
     32 CA         26.6231   23.6144   -1.5848 C.3       2 UNK         0.0288 
     33 CB         27.8215   23.6282   -2.5516 C.3       2 UNK        -0.2113 
     34 N          27.1166   23.3302   -0.2367 N.am      2 UNK        -0.4145 
     35 C          26.6490   22.3609    0.5624 C.2       1 UNK         0.5006 
     36 O          25.7909   21.5456    0.2151 O.2       1 UNK        -0.5103 
     37 C          29.5978   26.5983    0.3170 C.2       5 UNK         0.5055 
     38 O          28.9047   25.5799    0.2369 O.2       5 UNK        -0.5220 
     39 N          29.8866   27.2292    1.4574 N.am      6 UNK        -0.4450 
     40 CA         29.4282   26.8524    2.7882 C.3       6 UNK         0.0367 
     41 CB         27.9084   27.0879    2.9225 C.3       6 UNK        -0.1929 
     42 C          30.1842   27.7054    3.8084 C.2       6 UNK         0.5070 
     43 O          30.7588   28.7353    3.4431 O.2       6 UNK        -0.5237 
     44 N          30.1245   27.3012    5.0843 N.am      7 UNK        -0.4739 
     45 CA         30.7225   28.0148    6.2220 C.3       7 UNK         0.0276 
     46 CB         30.5374   27.1814    7.4989 C.3       7 UNK        -0.1927 
     47 C          30.1855   29.4450    6.4225 C.2       7 UNK         0.5013 
     48 O          30.9013   30.2870    6.9642 O.2       7 UNK        -0.5193 
     49 N          28.9705   29.7156    5.9228 N.am      8 UNK        -0.4253 
     50 CA         28.3543   31.0437    5.8438 C.3       8 UNK         0.0242 
     51 CB         26.9235   30.9003    5.3002 C.3       8 UNK        -0.2000 
     52 C          29.1504   32.0581    4.9970 C.2       8 UNK         0.4948 
     53 O          29.0205   33.2596    5.2317 O.2       8 UNK        -0.5275 
     54 N          29.9780   31.5715    4.0587 N.am      9 UNK        -0.4246 
     55 CA         30.9052   32.3794    3.2608 C.3       9 UNK         0.0261 
     56 CB         31.0827   31.7148    1.8829 C.3       9 UNK        -0.1959 
     57 C          32.2688   32.5876    3.9540 C.2       9 UNK         0.5033 
     58 O          33.1791   33.1237    3.3212 O.2       9 UNK        -0.5390 
     59 N          32.4131   32.1290    5.2091 N.am      10 UNK        -0.4215 
     60 CA         33.6146   32.1510    6.0583 C.3       10 UNK         0.0240 
     61 CB         34.1260   33.5900    6.2835 C.3       10 UNK        -0.1982 
     62 C          34.7391   31.1982    5.6042 C.2       10 UNK         0.4970 
     63 O          35.7952   31.1774    6.2377 O.2       10 UNK        -0.4916 
     64 N          34.4921   30.4099    4.5492 N.am      11 UNK        -0.4279 
     65 CA         35.4039   29.4113    3.9713 C.3       11 UNK         0.1003 
     66 C          36.7006   29.9894    3.3250 C.2       11 UNK         0.5709 
     67 N          36.7470   31.2736    2.9892 N.am      11 UNK        -0.7358 
     68 O          37.6659   29.2655    3.0928 O.2       11 UNK        -0.4999 
     69 C69        35.6493   28.2139    4.9432 C.3       12 UNK        -0.0954 
     70 S70        35.4179   26.6067    4.1190 S.3       12 UNK        -0.2268 
     71 C71        33.6009   26.5126    4.1699 C.3       12 UNK         0.0203 
     72 H72        23.3040   23.7196    3.7244 H         1 UNK         0.0888 
     73 H73        24.3023   22.6892    4.7531 H         1 UNK         0.0888 
     74 H74        24.4631   24.4446    4.8420 H         1 UNK         0.0888 
     75 H75        25.9566   21.7292    3.6064 H         1 UNK         0.3017 
     76 H76        27.5275   21.2462    2.1305 H         1 UNK         0.0873 
     77 H77        28.1331   24.2358    2.2625 H         1 UNK         0.0745 
     78 H78        29.1686   23.0802    1.4616 H         1 UNK         0.0745 
     79 H79        30.8071   21.5342    2.5598 H         1 UNK         0.0705 
     80 H80        31.4231   21.8723    4.1561 H         1 UNK         0.0705 
     81 H81        32.0793   24.3126    4.7294 H         1 UNK         0.1334 
     82 H82        33.8917   26.4229    1.4674 H         1 UNK         0.1417 
     83 H83        31.5697   22.8971    0.7139 H         1 UNK         0.1562 
     84 H84        32.5801   24.0104   -1.1368 H         1 UNK         0.0748 
     85 H85        34.1635   24.5640   -0.6699 H         1 UNK         0.0748 
     86 H86        30.6857   25.2577   -1.7453 H         1 UNK         0.0940 
     87 H87        30.9957   26.5686   -2.8399 H         1 UNK         0.0940 
     88 H88        30.6625   28.1525   -0.7239 H         1 UNK         0.0703 
     89 H89        28.1966   26.8738   -1.7255 H         1 UNK         0.3081 
     90 H90        26.7927   30.0021   -2.3724 H         1 UNK         0.0719 
     91 H91        27.7325   29.5458   -4.6474 H         1 UNK         0.0809 
     92 H92        27.3548   27.8364   -4.4755 H         1 UNK         0.0809 
     93 H93        26.0577   29.0294   -4.5395 H         1 UNK         0.0809 
     94 H94        25.8973   27.2410   -2.5754 H         1 UNK         0.2990 
     95 H95        24.8490   26.9662    0.8264 H         1 UNK         0.0690 
     96 H96        22.8824   26.1301   -0.4219 H         1 UNK         0.0788 
     97 H97        23.4868   26.8419   -1.9164 H         1 UNK         0.0788 
     98 H98        23.0221   27.8739   -0.5746 H         1 UNK         0.0788 
     99 H99        25.8094   25.0781    0.3818 H         1 UNK         0.2993 
    100 H100       25.9297   22.8380   -1.9145 H         1 UNK         0.0949 
    101 H101       27.4951   23.7642   -3.5835 H         1 UNK         0.0767 
    102 H102       28.5159   24.4351   -2.3195 H         1 UNK         0.0767 
    103 H103       28.3737   22.6892   -2.5107 H         1 UNK         0.0767 
    104 H104       27.7997   23.9943    0.1240 H         1 UNK         0.3013 
    105 H105       30.4756   28.0538    1.4575 H         1 UNK         0.3121 
    106 H106       29.6753   25.8044    2.9607 H         1 UNK         0.0774 
    107 H107       27.3418   26.5257    2.1812 H         1 UNK         0.0815 
    108 H108       27.5430   26.7735    3.9005 H         1 UNK         0.0815 
    109 H109       27.6520   28.1406    2.7958 H         1 UNK         0.0815 
    110 H110       29.6273   26.4480    5.2995 H         1 UNK         0.2987 
    111 H111       31.7926   28.1090    6.0276 H         1 UNK         0.0949 
    112 H112       31.0071   26.2020    7.4054 H         1 UNK         0.0806 
    113 H113       30.9941   27.6760    8.3576 H         1 UNK         0.0806 
    114 H114       29.4831   27.0291    7.7333 H         1 UNK         0.0806 
    115 H115       28.4588   28.9539    5.5031 H         1 UNK         0.3010 
    116 H116       28.3000   31.4417    6.8594 H         1 UNK         0.0829 
    117 H117       26.3178   30.2561    5.9379 H         1 UNK         0.0813 
    118 H118       26.4240   31.8693    5.2557 H         1 UNK         0.0813 
    119 H119       26.9138   30.4827    4.2924 H         1 UNK         0.0813 
    120 H120       30.0470   30.5659    3.9310 H         1 UNK         0.3038 
    121 H121       30.4728   33.3693    3.1009 H         1 UNK         0.0769 
    122 H122       31.6712   32.3469    1.2167 H         1 UNK         0.0811 
    123 H123       30.1224   31.5424    1.3964 H         1 UNK         0.0811 
    124 H124       31.5980   30.7570    1.9574 H         1 UNK         0.0811 
    125 H125       31.6189   31.6640    5.6382 H         1 UNK         0.3204 
    126 H126       33.2880   31.7710    7.0275 H         1 UNK         0.0748 
    127 H127       34.9049   33.6125    7.0466 H         1 UNK         0.0771 
    128 H128       34.5531   34.0189    5.3767 H         1 UNK         0.0771 
    129 H129       33.3249   34.2472    6.6218 H         1 UNK         0.0771 
    130 H130       33.6060   30.5164    4.0795 H         1 UNK         0.2980 
    131 H131       34.8459   29.0424    3.1103 H         1 UNK         0.0545 
    132 H132       37.5820   31.6424    2.5623 H         1 UNK         0.3459 
    133 H133       35.9561   31.8756    3.1583 H         1 UNK         0.3459 
    134 H134       36.6474   28.2494    5.3832 H         1 UNK         0.0616 
    135 H135       34.9635   28.2456    5.7917 H         1 UNK         0.0616 
    136 H136       33.2883   26.2980    5.1929 H         1 UNK         0.0634 
    137 H137       33.1800   27.4846    3.9128 H         1 UNK         0.0634 
@<TRIPOS>BOND
     1    1    2 1    
     2    1   72 1    
     3    1   73 1    
     4    1   74 1    
     5    2    3 2    
     6    2    4 am   BACKBONE|DICT|INTERRES
     7    4    5 1    
     8    4   75 1    
     9    5    6 1    
    10    5   35 1    
    11    5   76 1    
    12    6    7 1    
    13    6   77 1    
    14    6   78 1    
    15    7    8 1    
    16    8    9 1    
    17    8   79 1    
    18    8   80 1    
    19    9   10 ar   
    20    9   14 ar   
    21   10   11 ar   
    22   10   81 1    
    23   11   12 ar   
    24   11   71 1    
    25   12   13 ar   
    26   12   82 1    
    27   13   14 ar   
    28   13   15 1    
    29   14   83 1    
    30   15   16 1    
    31   15   84 1    
    32   15   85 1    
    33   16   17 1    
    34   17   18 1    
    35   17   86 1    
    36   17   87 1    
    37   18   19 1    
    38   18   37 1    
    39   18   88 1    
    40   19   20 am   BACKBONE|DICT|INTERRES
    41   19   89 1    
    42   20   21 2    
    43   20   22 1    
    44   22   23 1    
    45   22   24 1    
    46   22   90 1    
    47   23   91 1    
    48   23   92 1    
    49   23   93 1    
    50   24   25 am   BACKBONE|DICT|INTERRES
    51   24   94 1    
    52   25   26 2    
    53   25   27 1    
    54   27   28 1    
    55   27   29 1    
    56   27   95 1    
    57   28   96 1    
    58   28   97 1    
    59   28   98 1    
    60   29   30 am   BACKBONE|DICT|INTERRES
    61   29   99 1    
    62   30   31 2    
    63   30   32 1    
    64   32   33 1    
    65   32   34 1    
    66   32  100 1    
    67   33  101 1    
    68   33  102 1    
    69   33  103 1    
    70   34   35 am   BACKBONE|DICT|INTERRES
    71   34  104 1    
    72   35   36 2    
    73   37   38 2    
    74   37   39 am   BACKBONE|DICT|INTERRES
    75   39   40 1    
    76   39  105 1    
    77   40   41 1    
    78   40   42 1    
    79   40  106 1    
    80   41  107 1    
    81   41  108 1    
    82   41  109 1    
    83   42   43 2    
    84   42   44 am   BACKBONE|DICT|INTERRES
    85   44   45 1    
    86   44  110 1    
    87   45   46 1    
    88   45   47 1    
    89   45  111 1    
    90   46  112 1    
    91   46  113 1    
    92   46  114 1    
    93   47   48 2    
    94   47   49 am   BACKBONE|DICT|INTERRES
    95   49   50 1    
    96   49  115 1    
    97   50   51 1    
    98   50   52 1    
    99   50  116 1    
   100   51  117 1    
   101   51  118 1    
   102   51  119 1    
   103   52   53 2    
   104   52   54 am   BACKBONE|DICT|INTERRES
   105   54   55 1    
   106   54  120 1    
   107   55   56 1    
   108   55   57 1    
   109   55  121 1    
   110   56  122 1    
   111   56  123 1    
   112   56  124 1    
   113   57   58 2    
   114   57   59 am   BACKBONE|DICT|INTERRES
   115   59   60 1    
   116   59  125 1    
   117   60   61 1    
   118   60   62 1    
   119   60  126 1    
   120   61  127 1    
   121   61  128 1    
   122   61  129 1    
   123   62   63 2    
   124   62   64 am   BACKBONE|DICT|INTERRES
   125   64   65 1    
   126   64  130 1    
   127   65   66 1    
   128   65   69 1    
   129   65  131 1    
   130   66   67 am   BACKBONE|DICT|INTERRES
   131   66   68 2    
   132   67  132 1    
   133   67  133 1    
   134   69   70 1    
   135   69  134 1    
   136   69  135 1    
   137   70   71 1    
   138   71  136 1    
   139   71  137 1    
@<TRIPOS>SUBSTRUCTURE
     1 UNK         1 GROUP             0       ****    0 ROOT    
