@<TRIPOS>MOLECULE
3R136
137   139    1
SMALL
USER_CHARGES


@<TRIPOS>ATOM
      1 CA         27.1795   21.3427    4.6680 C.3       0 UNK        -0.1979 
      2 C          27.9074   21.8583    3.4363 C.2       0 UNK         0.4864 
      3 O          27.4148   22.7762    2.7789 O.2       0 UNK        -0.5359 
      4 N          29.0720   21.2743    3.1183 N.am      1 UNK        -0.4318 
      5 CA         29.9342   21.6105    1.9764 C.3       1 UNK         0.0824 
      6 C6         30.6000   23.0117    2.1000 C.3       12 UNK        -0.0944 
      7 S7         31.6716   23.1503    3.5709 S.3       12 UNK        -0.2672 
      8 C8         30.7079   24.3011    4.6147 C.3       12 UNK         0.0333 
      9 C9         30.5928   25.7422    4.1070 C.ar      12 UNK        -0.0807 
     10 C10        31.3377   26.2340    3.0255 C.ar      12 UNK        -0.0894 
     11 C11        31.2161   27.5645    2.6163 C.ar      12 UNK        -0.0804 
     12 C12        30.3343   28.4085    3.2935 C.ar      12 UNK        -0.0824 
     13 C13        29.5619   27.9330    4.3552 C.ar      12 UNK        -0.0762 
     14 C14        29.7029   26.6023    4.7599 C.ar      12 UNK        -0.0782 
     15 C15        28.5744   28.8517    5.0642 C.3       12 UNK         0.0230 
     16 S16        26.9380   28.8404    4.2634 S.3       12 UNK        -0.2608 
     17 C17        27.1920   29.9511    2.8344 C.3       12 UNK        -0.0989 
     18 CA         27.3862   29.1726    1.5082 C.3       5 UNK         0.0716 
     19 N          26.2110   28.3662    1.1701 N.am      5 UNK        -0.4135 
     20 C          26.2635   27.1784    0.5612 C.2       4 UNK         0.5031 
     21 O          27.3095   26.6077    0.2358 O.2       4 UNK        -0.5229 
     22 CA         24.9208   26.5052    0.2590 C.3       4 UNK         0.0329 
     23 CB         24.4132   26.8853   -1.1440 C.3       4 UNK        -0.2001 
     24 N          25.1378   25.0684    0.3514 N.am      4 UNK        -0.4303 
     25 C          24.2154   24.1143    0.5110 C.2       3 UNK         0.5044 
     26 O          23.0038   24.3354    0.5526 O.2       3 UNK        -0.5152 
     27 CA         24.7418   22.6753    0.6912 C.3       3 UNK         0.0319 
     28 CB         23.7864   21.6024    0.1257 C.3       3 UNK        -0.2001 
     29 N          26.1206   22.5020    0.2093 N.am      3 UNK        -0.4354 
     30 C          26.5549   22.5047   -1.0627 C.2       2 UNK         0.4964 
     31 O          25.8061   22.5575   -2.0388 O.2       2 UNK        -0.5047 
     32 CA         28.0791   22.4885   -1.3060 C.3       2 UNK         0.0288 
     33 CB         28.5075   23.7041   -2.1482 C.3       2 UNK        -0.2113 
     34 N          28.8699   22.4830   -0.0727 N.am      2 UNK        -0.4145 
     35 C          29.1710   21.3946    0.6492 C.2       1 UNK         0.5006 
     36 O          28.8484   20.2506    0.3224 O.2       1 UNK        -0.5103 
     37 C          27.7277   30.1285    0.3484 C.2       5 UNK         0.5055 
     38 O          26.8718   30.4131   -0.4948 O.2       5 UNK        -0.5220 
     39 N          28.9714   30.6211    0.3464 N.am      6 UNK        -0.4450 
     40 CA         29.4904   31.6168   -0.5905 C.3       6 UNK         0.0367 
     41 CB         30.8312   31.0977   -1.1509 C.3       6 UNK        -0.1929 
     42 C          29.6369   32.9677    0.1358 C.2       6 UNK         0.5070 
     43 O          28.9804   33.1940    1.1554 O.2       6 UNK        -0.5237 
     44 N          30.5046   33.8459   -0.3878 N.am      7 UNK        -0.4739 
     45 CA         30.9301   35.0792    0.2863 C.3       7 UNK         0.0276 
     46 CB         31.6560   35.9890   -0.7180 C.3       7 UNK        -0.1927 
     47 C          31.8240   34.7970    1.5101 C.2       7 UNK         0.5013 
     48 O          31.7803   35.5525    2.4819 O.2       7 UNK        -0.5193 
     49 N          32.5972   33.7053    1.4414 N.am      8 UNK        -0.4253 
     50 CA         33.3239   33.1155    2.5637 C.3       8 UNK         0.0242 
     51 CB         34.5808   32.4117    2.0260 C.3       8 UNK        -0.2000 
     52 C          32.4183   32.1132    3.2967 C.2       8 UNK         0.4948 
     53 O          31.4953   31.5652    2.6876 O.2       8 UNK        -0.5275 
     54 N          32.7178   31.8750    4.5778 N.am      9 UNK        -0.4246 
     55 CA         32.0210   30.9196    5.4366 C.3       9 UNK         0.0261 
     56 CB         31.4078   31.6669    6.6324 C.3       9 UNK        -0.1959 
     57 C          33.0035   29.8464    5.9192 C.2       9 UNK         0.5033 
     58 O          34.1834   30.1522    6.1109 O.2       9 UNK        -0.5390 
     59 N          32.4824   28.6286    6.1387 N.am      10 UNK        -0.4215 
     60 CA         33.1842   27.4327    6.6285 C.3       10 UNK         0.0240 
     61 CB         33.5626   27.6002    8.1157 C.3       10 UNK        -0.1982 
     62 C          34.3826   27.0412    5.7413 C.2       10 UNK         0.4970 
     63 O          35.4898   26.8386    6.2436 O.2       10 UNK        -0.4916 
     64 N          34.1328   26.9774    4.4284 N.am      11 UNK        -0.4279 
     65 CA         35.1425   26.7607    3.3807 C.3       11 UNK         0.1003 
     66 C          35.8271   25.3630    3.3925 C.2       11 UNK         0.5709 
     67 N          35.2484   24.3458    4.0195 N.am      11 UNK        -0.7358 
     68 O          36.9036   25.2028    2.8222 O.2       11 UNK        -0.4999 
     69 C69        34.5922   27.0787    1.9640 C.3       12 UNK        -0.0954 
     70 S70        33.6706   28.6535    1.8600 S.3       12 UNK        -0.2268 
     71 C71        31.9987   28.0828    1.4161 C.3       12 UNK         0.0203 
     72 H72        26.1949   20.9673    4.3908 H         1 UNK         0.0888 
     73 H73        27.7258   20.5367    5.1577 H         1 UNK         0.0888 
     74 H74        27.0469   22.1496    5.3882 H         1 UNK         0.0888 
     75 H75        29.4056   20.5099    3.6885 H         1 UNK         0.3017 
     76 H76        30.7356   20.8698    1.9736 H         1 UNK         0.0873 
     77 H77        31.2304   23.2110    1.2313 H         1 UNK         0.0745 
     78 H78        29.8497   23.8040    2.1239 H         1 UNK         0.0745 
     79 H79        29.7084   23.8870    4.7527 H         1 UNK         0.0705 
     80 H80        31.1695   24.3235    5.6026 H         1 UNK         0.0705 
     81 H81        32.0144   25.5862    2.4900 H         1 UNK         0.1334 
     82 H82        30.2297   29.4348    2.9771 H         1 UNK         0.1417 
     83 H83        29.1087   26.2310    5.5844 H         1 UNK         0.1562 
     84 H84        28.9537   29.8730    5.1109 H         1 UNK         0.0748 
     85 H85        28.4531   28.5316    6.1003 H         1 UNK         0.0748 
     86 H86        28.0428   30.6045    3.0371 H         1 UNK         0.0940 
     87 H87        26.3268   30.6132    2.7625 H         1 UNK         0.0940 
     88 H88        28.2382   28.5024    1.6291 H         1 UNK         0.0703 
     89 H89        25.3134   28.7866    1.3603 H         1 UNK         0.3081 
     90 H90        24.1900   26.8040    1.0136 H         1 UNK         0.0719 
     91 H91        25.1137   26.5752   -1.9206 H         1 UNK         0.0809 
     92 H92        23.4497   26.4231   -1.3589 H         1 UNK         0.0809 
     93 H93        24.2820   27.9645   -1.2334 H         1 UNK         0.0809 
     94 H94        26.1168   24.8088    0.3565 H         1 UNK         0.2990 
     95 H95        24.7929   22.5193    1.7697 H         1 UNK         0.0690 
     96 H96        24.1950   20.5999    0.2522 H         1 UNK         0.0788 
     97 H97        23.5836   21.7535   -0.9347 H         1 UNK         0.0788 
     98 H98        22.8259   21.6273    0.6418 H         1 UNK         0.0788 
     99 H99        26.8143   22.4914    0.9532 H         1 UNK         0.2993 
    100 H100       28.3021   21.5834   -1.8752 H         1 UNK         0.0949 
    101 H101       28.2832   24.6447   -1.6428 H         1 UNK         0.0767 
    102 H102       29.5767   23.6832   -2.3605 H         1 UNK         0.0767 
    103 H103       27.9909   23.7198   -3.1090 H         1 UNK         0.0767 
    104 H104       29.1422   23.3867    0.2870 H         1 UNK         0.3013 
    105 H105       29.5770   30.4252    1.1308 H         1 UNK         0.3121 
    106 H106       28.7976   31.7627   -1.4218 H         1 UNK         0.0774 
    107 H107       31.2002   31.7274   -1.9608 H         1 UNK         0.0815 
    108 H108       30.7223   30.0936   -1.5617 H         1 UNK         0.0815 
    109 H109       31.6037   31.0568   -0.3812 H         1 UNK         0.0815 
    110 H110       30.9760   33.6107   -1.2496 H         1 UNK         0.2987 
    111 H111       30.0398   35.6028    0.6423 H         1 UNK         0.0949 
    112 H112       31.0098   36.2498   -1.5565 H         1 UNK         0.0806 
    113 H113       31.9626   36.9231   -0.2450 H         1 UNK         0.0806 
    114 H114       32.5541   35.5171   -1.1186 H         1 UNK         0.0806 
    115 H115       32.5097   33.1253    0.6213 H         1 UNK         0.3010 
    116 H116       33.6262   33.8996    3.2616 H         1 UNK         0.0829 
    117 H117       35.1489   31.9482    2.8338 H         1 UNK         0.0813 
    118 H118       34.3291   31.6248    1.3138 H         1 UNK         0.0813 
    119 H119       35.2454   33.1159    1.5253 H         1 UNK         0.0813 
    120 H120       33.5494   32.2882    4.9779 H         1 UNK         0.3038 
    121 H121       31.2176   30.4342    4.8870 H         1 UNK         0.0769 
    122 H122       32.1710   32.1637    7.2330 H         1 UNK         0.0811 
    123 H123       30.8694   30.9825    7.2893 H         1 UNK         0.0811 
    124 H124       30.6969   32.4243    6.3015 H         1 UNK         0.0811 
    125 H125       31.5030   28.4919    5.9318 H         1 UNK         0.3204 
    126 H126       32.4742   26.6068    6.5618 H         1 UNK         0.0748 
    127 H127       33.9970   26.6828    8.5148 H         1 UNK         0.0771 
    128 H128       34.2937   28.3965    8.2604 H         1 UNK         0.0771 
    129 H129       32.6883   27.8344    8.7231 H         1 UNK         0.0771 
    130 H130       33.1993   27.1752    4.0973 H         1 UNK         0.2980 
    131 H131       35.9378   27.4814    3.5805 H         1 UNK         0.0545 
    132 H132       34.3576   24.4638    4.4739 H         1 UNK         0.3459 
    133 H133       35.7009   23.4458    4.0210 H         1 UNK         0.3459 
    134 H134       33.9642   26.2641    1.6028 H         1 UNK         0.0616 
    135 H135       35.4193   27.1424    1.2547 H         1 UNK         0.0616 
    136 H136       31.4649   28.9193    0.9641 H         1 UNK         0.0634 
    137 H137       32.0591   27.3166    0.6419 H         1 UNK         0.0634 
@<TRIPOS>BOND
     1    1    2 1    
     2    1   72 1    
     3    1   73 1    
     4    1   74 1    
     5    2    3 2    
     6    2    4 am   BACKBONE|DICT|INTERRES
     7    4    5 1    
     8    4   75 1    
     9    5    6 1    
    10    5   35 1    
    11    5   76 1    
    12    6    7 1    
    13    6   77 1    
    14    6   78 1    
    15    7    8 1    
    16    8    9 1    
    17    8   79 1    
    18    8   80 1    
    19    9   10 ar   
    20    9   14 ar   
    21   10   11 ar   
    22   10   81 1    
    23   11   12 ar   
    24   11   71 1    
    25   12   13 ar   
    26   12   82 1    
    27   13   14 ar   
    28   13   15 1    
    29   14   83 1    
    30   15   16 1    
    31   15   84 1    
    32   15   85 1    
    33   16   17 1    
    34   17   18 1    
    35   17   86 1    
    36   17   87 1    
    37   18   19 1    
    38   18   37 1    
    39   18   88 1    
    40   19   20 am   BACKBONE|DICT|INTERRES
    41   19   89 1    
    42   20   21 2    
    43   20   22 1    
    44   22   23 1    
    45   22   24 1    
    46   22   90 1    
    47   23   91 1    
    48   23   92 1    
    49   23   93 1    
    50   24   25 am   BACKBONE|DICT|INTERRES
    51   24   94 1    
    52   25   26 2    
    53   25   27 1    
    54   27   28 1    
    55   27   29 1    
    56   27   95 1    
    57   28   96 1    
    58   28   97 1    
    59   28   98 1    
    60   29   30 am   BACKBONE|DICT|INTERRES
    61   29   99 1    
    62   30   31 2    
    63   30   32 1    
    64   32   33 1    
    65   32   34 1    
    66   32  100 1    
    67   33  101 1    
    68   33  102 1    
    69   33  103 1    
    70   34   35 am   BACKBONE|DICT|INTERRES
    71   34  104 1    
    72   35   36 2    
    73   37   38 2    
    74   37   39 am   BACKBONE|DICT|INTERRES
    75   39   40 1    
    76   39  105 1    
    77   40   41 1    
    78   40   42 1    
    79   40  106 1    
    80   41  107 1    
    81   41  108 1    
    82   41  109 1    
    83   42   43 2    
    84   42   44 am   BACKBONE|DICT|INTERRES
    85   44   45 1    
    86   44  110 1    
    87   45   46 1    
    88   45   47 1    
    89   45  111 1    
    90   46  112 1    
    91   46  113 1    
    92   46  114 1    
    93   47   48 2    
    94   47   49 am   BACKBONE|DICT|INTERRES
    95   49   50 1    
    96   49  115 1    
    97   50   51 1    
    98   50   52 1    
    99   50  116 1    
   100   51  117 1    
   101   51  118 1    
   102   51  119 1    
   103   52   53 2    
   104   52   54 am   BACKBONE|DICT|INTERRES
   105   54   55 1    
   106   54  120 1    
   107   55   56 1    
   108   55   57 1    
   109   55  121 1    
   110   56  122 1    
   111   56  123 1    
   112   56  124 1    
   113   57   58 2    
   114   57   59 am   BACKBONE|DICT|INTERRES
   115   59   60 1    
   116   59  125 1    
   117   60   61 1    
   118   60   62 1    
   119   60  126 1    
   120   61  127 1    
   121   61  128 1    
   122   61  129 1    
   123   62   63 2    
   124   62   64 am   BACKBONE|DICT|INTERRES
   125   64   65 1    
   126   64  130 1    
   127   65   66 1    
   128   65   69 1    
   129   65  131 1    
   130   66   67 am   BACKBONE|DICT|INTERRES
   131   66   68 2    
   132   67  132 1    
   133   67  133 1    
   134   69   70 1    
   135   69  134 1    
   136   69  135 1    
   137   70   71 1    
   138   71  136 1    
   139   71  137 1    
@<TRIPOS>SUBSTRUCTURE
     1 UNK         1 GROUP             0       ****    0 ROOT    
