@<TRIPOS>MOLECULE
3R136
137   139    1
SMALL
USER_CHARGES


@<TRIPOS>ATOM
      1 CA         28.5331   19.5970    1.4051 C.3       0 UNK        -0.1979 
      2 C          28.8825   20.2095    0.0565 C.2       0 UNK         0.4864 
      3 O          29.7654   19.7025   -0.6369 O.2       0 UNK        -0.5359 
      4 N          28.2003   21.2959   -0.3156 N.am      1 UNK        -0.4318 
      5 CA         28.3897   22.0419   -1.5582 C.3       1 UNK         0.0824 
      6 C6         29.6731   22.9222   -1.5639 C.3       12 UNK        -0.0944 
      7 S7         29.8376   24.0245   -0.1125 S.3       12 UNK        -0.2672 
      8 C8         31.2246   23.2224    0.7517 C.3       12 UNK         0.0333 
      9 C9         31.2202   23.5688    2.2295 C.ar      12 UNK        -0.0807 
     10 C10        32.0475   24.5783    2.7303 C.ar      12 UNK        -0.0894 
     11 C11        32.0271   24.8956    4.0921 C.ar      12 UNK        -0.0804 
     12 C12        31.1720   24.2003    4.9521 C.ar      12 UNK        -0.0824 
     13 C13        30.3298   23.2007    4.4561 C.ar      12 UNK        -0.0762 
     14 C14        30.3720   22.8769    3.0977 C.ar      12 UNK        -0.0782 
     15 C15        29.3249   22.5161    5.3692 C.3       12 UNK         0.0230 
     16 S16        27.6217   23.0469    4.9903 S.3       12 UNK        -0.2608 
     17 C17        27.7064   24.8455    5.3097 C.3       12 UNK        -0.0989 
     18 CA         28.0058   25.6823    4.0306 C.3       5 UNK         0.0716 
     19 N          27.0800   25.4289    2.9198 N.am      5 UNK        -0.4135 
     20 C          25.7661   25.6903    2.9013 C.2       4 UNK         0.5031 
     21 O          25.1481   26.2025    3.8369 O.2       4 UNK        -0.5229 
     22 CA         25.0314   25.3097    1.6011 C.3       4 UNK         0.0329 
     23 CB         23.5723   25.8124    1.5608 C.3       4 UNK        -0.2001 
     24 N          25.7540   25.7215    0.3900 N.am      4 UNK        -0.4303 
     25 C          26.0948   26.9726    0.0338 C.2       3 UNK         0.5044 
     26 O          25.8882   27.9622    0.7352 O.2       3 UNK        -0.5152 
     27 CA         26.8007   27.1728   -1.3234 C.3       3 UNK         0.0319 
     28 CB         28.2584   27.6106   -1.1126 C.3       3 UNK        -0.2001 
     29 N          26.7800   25.9880   -2.1827 N.am      3 UNK        -0.4354 
     30 C          25.6981   25.5160   -2.8194 C.2       2 UNK         0.4964 
     31 O          24.6102   26.0922   -2.8359 O.2       2 UNK        -0.5047 
     32 CA         25.8392   24.1581   -3.5358 C.3       2 UNK         0.0288 
     33 CB         25.9637   24.3634   -5.0547 C.3       2 UNK        -0.2113 
     34 N          26.9626   23.3331   -3.0700 N.am      2 UNK        -0.4145 
     35 C          27.1185   22.8642   -1.8229 C.2       1 UNK         0.5006 
     36 O          26.3290   23.0925   -0.8997 O.2       1 UNK        -0.5103 
     37 C          28.1887   27.1891    4.3209 C.2       5 UNK         0.5055 
     38 O          28.3169   27.5875    5.4803 O.2       5 UNK        -0.5220 
     39 N          28.2173   27.9978    3.2551 N.am      6 UNK        -0.4450 
     40 CA         28.4736   29.4353    3.2843 C.3       6 UNK         0.0367 
     41 CB         27.1484   30.2025    3.4561 C.3       6 UNK        -0.1929 
     42 C          29.2398   29.8172    2.0106 C.2       6 UNK         0.5070 
     43 O          28.7931   30.6724    1.2460 O.2       6 UNK        -0.5237 
     44 N          30.3730   29.1367    1.7837 N.am      7 UNK        -0.4739 
     45 CA         31.2275   29.2815    0.5968 C.3       7 UNK         0.0276 
     46 CB         32.2615   28.1435    0.5927 C.3       7 UNK        -0.1927 
     47 C          31.9227   30.6518    0.4691 C.2       7 UNK         0.5013 
     48 O          32.3250   31.0251   -0.6332 O.2       7 UNK        -0.5193 
     49 N          32.0428   31.3694    1.5888 N.am      8 UNK        -0.4253 
     50 CA         32.5948   32.7109    1.7438 C.3       8 UNK         0.0242 
     51 CB         34.1265   32.6905    1.5635 C.3       8 UNK        -0.2000 
     52 C          32.2048   33.1916    3.1478 C.2       8 UNK         0.4948 
     53 O          31.6785   32.3961    3.9324 O.2       8 UNK        -0.5275 
     54 N          32.5165   34.4538    3.4735 N.am      9 UNK        -0.4246 
     55 CA         32.2535   35.0719    4.7831 C.3       9 UNK         0.0261 
     56 CB         32.6918   36.5452    4.7507 C.3       9 UNK        -0.1959 
     57 C          32.9044   34.3424    5.9768 C.2       9 UNK         0.5033 
     58 O          32.3224   34.3257    7.0622 O.2       9 UNK        -0.5390 
     59 N          34.0745   33.7337    5.7425 N.am      10 UNK        -0.4215 
     60 CA         34.7827   32.8567    6.6818 C.3       10 UNK         0.0240 
     61 CB         36.2187   33.3845    6.8593 C.3       10 UNK        -0.1982 
     62 C          34.7814   31.3859    6.2133 C.2       10 UNK         0.4970 
     63 O          35.5238   30.5788    6.7732 O.2       10 UNK        -0.4916 
     64 N          33.9806   31.0638    5.1866 N.am      11 UNK        -0.4279 
     65 CA         33.8760   29.7553    4.5175 C.3       11 UNK         0.1003 
     66 C          35.1510   29.2800    3.7506 C.2       11 UNK         0.5709 
     67 N          36.1851   30.0990    3.6001 N.am      11 UNK        -0.7358 
     68 O          35.1939   28.1639    3.2423 O.2       11 UNK        -0.4999 
     69 C69        33.2623   28.6675    5.4461 C.3       12 UNK        -0.0954 
     70 S70        32.0580   27.6029    4.5831 S.3       12 UNK        -0.2268 
     71 C71        32.9147   26.0010    4.6361 C.3       12 UNK         0.0203 
     72 H72        27.7870   20.1856    1.9391 H         1 UNK         0.0888 
     73 H73        28.1386   18.5905    1.2690 H         1 UNK         0.0888 
     74 H74        29.4234   19.5326    2.0301 H         1 UNK         0.0888 
     75 H75        27.4505   21.6644    0.2571 H         1 UNK         0.3017 
     76 H76        28.4643   21.3160   -2.3711 H         1 UNK         0.0873 
     77 H77        29.7204   23.5368   -2.4645 H         1 UNK         0.0745 
     78 H78        30.5491   22.2751   -1.6258 H         1 UNK         0.0745 
     79 H79        31.1591   22.1391    0.6418 H         1 UNK         0.0705 
     80 H80        32.1633   23.5236    0.2843 H         1 UNK         0.0705 
     81 H81        32.7002   25.1231    2.0615 H         1 UNK         0.1334 
     82 H82        31.1391   24.4628    6.0008 H         1 UNK         0.1417 
     83 H83        29.7129   22.1129    2.7092 H         1 UNK         0.1562 
     84 H84        29.5439   22.7208    6.4184 H         1 UNK         0.0748 
     85 H85        29.3979   21.4348    5.2442 H         1 UNK         0.0748 
     86 H86        28.4638   25.0273    6.0744 H         1 UNK         0.0940 
     87 H87        26.7592   25.1571    5.7530 H         1 UNK         0.0940 
     88 H88        28.9774   25.3718    3.6515 H         1 UNK         0.0703 
     89 H89        27.4872   24.9958    2.1033 H         1 UNK         0.3081 
     90 H90        25.0015   24.2191    1.5795 H         1 UNK         0.0719 
     91 H91        23.0722   25.5031    0.6431 H         1 UNK         0.0809 
     92 H92        23.5166   26.8997    1.6234 H         1 UNK         0.0809 
     93 H93        22.9969   25.4091    2.3950 H         1 UNK         0.0809 
     94 H94        25.9913   24.9619   -0.2412 H         1 UNK         0.2990 
     95 H95        26.2769   27.9775   -1.8437 H         1 UNK         0.0690 
     96 H96        28.7694   27.7722   -2.0619 H         1 UNK         0.0788 
     97 H97        28.8284   26.8765   -0.5423 H         1 UNK         0.0788 
     98 H98        28.2955   28.5525   -0.5653 H         1 UNK         0.0788 
     99 H99        27.6346   25.4533   -2.2334 H         1 UNK         0.2993 
    100 H100       24.9207   23.6007   -3.3388 H         1 UNK         0.0949 
    101 H101       25.1266   24.9473   -5.4406 H         1 UNK         0.0767 
    102 H102       26.8796   24.8949   -5.3164 H         1 UNK         0.0767 
    103 H103       25.9623   23.4115   -5.5863 H         1 UNK         0.0767 
    104 H104       27.6598   23.1022   -3.7637 H         1 UNK         0.3013 
    105 H105       28.0724   27.6005    2.3371 H         1 UNK         0.3121 
    106 H106       29.1259   29.6764    4.1270 H         1 UNK         0.0774 
    107 H107       27.3201   31.2792    3.4814 H         1 UNK         0.0815 
    108 H108       26.4583   29.9977    2.6365 H         1 UNK         0.0815 
    109 H109       26.6513   29.9307    4.3873 H         1 UNK         0.0815 
    110 H110       30.6684   28.4558    2.4710 H         1 UNK         0.2987 
    111 H111       30.5970   29.1704   -0.2869 H         1 UNK         0.0949 
    112 H112       32.9066   28.1795    1.4716 H         1 UNK         0.0806 
    113 H113       31.7766   27.1670    0.5714 H         1 UNK         0.0806 
    114 H114       32.9052   28.2023   -0.2861 H         1 UNK         0.0806 
    115 H115       31.6227   31.0157    2.4405 H         1 UNK         0.3010 
    116 H116       32.1358   33.3720    1.0061 H         1 UNK         0.0829 
    117 H117       34.4085   32.3295    0.5745 H         1 UNK         0.0813 
    118 H118       34.5541   33.6882    1.6671 H         1 UNK         0.0813 
    119 H119       34.6102   32.0486    2.2985 H         1 UNK         0.0813 
    120 H120       32.9479   35.0436    2.7755 H         1 UNK         0.3038 
    121 H121       31.1733   35.0428    4.9416 H         1 UNK         0.0769 
    122 H122       32.4860   37.0346    5.7039 H         1 UNK         0.0811 
    123 H123       32.1564   37.1029    3.9820 H         1 UNK         0.0811 
    124 H124       33.7606   36.6460    4.5575 H         1 UNK         0.0811 
    125 H125       34.4830   33.8348    4.8242 H         1 UNK         0.3204 
    126 H126       34.2938   32.8717    7.6580 H         1 UNK         0.0748 
    127 H127       36.7671   32.7977    7.5975 H         1 UNK         0.0771 
    128 H128       36.7827   33.3464    5.9266 H         1 UNK         0.0771 
    129 H129       36.2188   34.4173    7.2086 H         1 UNK         0.0771 
    130 H130       33.3317   31.7626    4.8429 H         1 UNK         0.2980 
    131 H131       33.1572   29.9467    3.7220 H         1 UNK         0.0545 
    132 H132       36.1868   31.0111    4.0237 H         1 UNK         0.3459 
    133 H133       36.9920   29.7770    3.0898 H         1 UNK         0.3459 
    134 H134       32.7117   29.1347    6.2641 H         1 UNK         0.0616 
    135 H135       34.0399   28.0701    5.9254 H         1 UNK         0.0616 
    136 H136       33.8387   26.0575    4.0602 H         1 UNK         0.0634 
    137 H137       33.2020   25.7755    5.6642 H         1 UNK         0.0634 
@<TRIPOS>BOND
     1    1    2 1    
     2    1   72 1    
     3    1   73 1    
     4    1   74 1    
     5    2    3 2    
     6    2    4 am   BACKBONE|DICT|INTERRES
     7    4    5 1    
     8    4   75 1    
     9    5    6 1    
    10    5   35 1    
    11    5   76 1    
    12    6    7 1    
    13    6   77 1    
    14    6   78 1    
    15    7    8 1    
    16    8    9 1    
    17    8   79 1    
    18    8   80 1    
    19    9   10 ar   
    20    9   14 ar   
    21   10   11 ar   
    22   10   81 1    
    23   11   12 ar   
    24   11   71 1    
    25   12   13 ar   
    26   12   82 1    
    27   13   14 ar   
    28   13   15 1    
    29   14   83 1    
    30   15   16 1    
    31   15   84 1    
    32   15   85 1    
    33   16   17 1    
    34   17   18 1    
    35   17   86 1    
    36   17   87 1    
    37   18   19 1    
    38   18   37 1    
    39   18   88 1    
    40   19   20 am   BACKBONE|DICT|INTERRES
    41   19   89 1    
    42   20   21 2    
    43   20   22 1    
    44   22   23 1    
    45   22   24 1    
    46   22   90 1    
    47   23   91 1    
    48   23   92 1    
    49   23   93 1    
    50   24   25 am   BACKBONE|DICT|INTERRES
    51   24   94 1    
    52   25   26 2    
    53   25   27 1    
    54   27   28 1    
    55   27   29 1    
    56   27   95 1    
    57   28   96 1    
    58   28   97 1    
    59   28   98 1    
    60   29   30 am   BACKBONE|DICT|INTERRES
    61   29   99 1    
    62   30   31 2    
    63   30   32 1    
    64   32   33 1    
    65   32   34 1    
    66   32  100 1    
    67   33  101 1    
    68   33  102 1    
    69   33  103 1    
    70   34   35 am   BACKBONE|DICT|INTERRES
    71   34  104 1    
    72   35   36 2    
    73   37   38 2    
    74   37   39 am   BACKBONE|DICT|INTERRES
    75   39   40 1    
    76   39  105 1    
    77   40   41 1    
    78   40   42 1    
    79   40  106 1    
    80   41  107 1    
    81   41  108 1    
    82   41  109 1    
    83   42   43 2    
    84   42   44 am   BACKBONE|DICT|INTERRES
    85   44   45 1    
    86   44  110 1    
    87   45   46 1    
    88   45   47 1    
    89   45  111 1    
    90   46  112 1    
    91   46  113 1    
    92   46  114 1    
    93   47   48 2    
    94   47   49 am   BACKBONE|DICT|INTERRES
    95   49   50 1    
    96   49  115 1    
    97   50   51 1    
    98   50   52 1    
    99   50  116 1    
   100   51  117 1    
   101   51  118 1    
   102   51  119 1    
   103   52   53 2    
   104   52   54 am   BACKBONE|DICT|INTERRES
   105   54   55 1    
   106   54  120 1    
   107   55   56 1    
   108   55   57 1    
   109   55  121 1    
   110   56  122 1    
   111   56  123 1    
   112   56  124 1    
   113   57   58 2    
   114   57   59 am   BACKBONE|DICT|INTERRES
   115   59   60 1    
   116   59  125 1    
   117   60   61 1    
   118   60   62 1    
   119   60  126 1    
   120   61  127 1    
   121   61  128 1    
   122   61  129 1    
   123   62   63 2    
   124   62   64 am   BACKBONE|DICT|INTERRES
   125   64   65 1    
   126   64  130 1    
   127   65   66 1    
   128   65   69 1    
   129   65  131 1    
   130   66   67 am   BACKBONE|DICT|INTERRES
   131   66   68 2    
   132   67  132 1    
   133   67  133 1    
   134   69   70 1    
   135   69  134 1    
   136   69  135 1    
   137   70   71 1    
   138   71  136 1    
   139   71  137 1    
@<TRIPOS>SUBSTRUCTURE
     1 UNK         1 GROUP             0       ****    0 ROOT    
