@<TRIPOS>MOLECULE
3R136
137   139    1
SMALL
USER_CHARGES


@<TRIPOS>ATOM
      1 CA         30.3757   23.6192   -4.1771 C.3       0 UNK        -0.1979 
      2 C          29.8988   23.8008   -2.7449 C.2       0 UNK         0.4864 
      3 O          29.1968   24.7718   -2.4567 O.2       0 UNK        -0.5359 
      4 N          30.2610   22.8670   -1.8515 N.am      1 UNK        -0.4318 
      5 CA         29.9559   22.8701   -0.4121 C.3       1 UNK         0.0824 
      6 C6         30.4984   21.6051    0.2956 C.3       12 UNK        -0.0944 
      7 S7         32.3145   21.6756    0.4567 S.3       12 UNK        -0.2672 
      8 C8         32.5454   21.7330    2.2665 C.3       12 UNK         0.0333 
      9 C9         31.9080   22.9599    2.9088 C.ar      12 UNK        -0.0807 
     10 C10        32.5214   24.2133    2.8062 C.ar      12 UNK        -0.0894 
     11 C11        31.9395   25.3370    3.4021 C.ar      12 UNK        -0.0804 
     12 C12        30.7357   25.1995    4.0994 C.ar      12 UNK        -0.0824 
     13 C13        30.1155   23.9547    4.2159 C.ar      12 UNK        -0.0762 
     14 C14        30.7111   22.8373    3.6234 C.ar      12 UNK        -0.0782 
     15 C15        28.8109   23.8072    4.9870 C.3       12 UNK         0.0230 
     16 S16        27.3977   23.6094    3.8574 S.3       12 UNK        -0.2608 
     17 C17        26.5100   25.2003    3.9646 C.3       12 UNK        -0.0989 
     18 CA         27.3181   26.4789    3.6154 C.3       5 UNK         0.0716 
     19 N          27.9148   26.4519    2.2696 N.am      5 UNK        -0.4135 
     20 C          28.7127   27.4151    1.7778 C.2       4 UNK         0.5031 
     21 O          29.0982   28.3777    2.4391 O.2       4 UNK        -0.5229 
     22 CA         29.1030   27.3592    0.2896 C.3       4 UNK         0.0329 
     23 CB         30.4942   26.7338    0.1126 C.3       4 UNK        -0.2001 
     24 N          28.1319   26.6878   -0.5798 N.am      4 UNK        -0.4303 
     25 C          26.8533   27.0616   -0.7455 C.2       3 UNK         0.5044 
     26 O          26.3161   27.9662   -0.1058 O.2       3 UNK        -0.5152 
     27 CA         26.0330   26.2887   -1.7889 C.3       3 UNK         0.0319 
     28 CB         26.3640   26.7736   -3.2097 C.3       3 UNK        -0.2001 
     29 N          26.2863   24.8524   -1.6881 N.am      3 UNK        -0.4354 
     30 C          25.5869   24.0194   -0.9042 C.2       2 UNK         0.4964 
     31 O          24.5688   24.3461   -0.2930 O.2       2 UNK        -0.5047 
     32 CA         26.1157   22.5790   -0.7534 C.3       2 UNK         0.0288 
     33 CB         25.4429   21.6491   -1.7761 C.3       2 UNK        -0.2113 
     34 N          27.5728   22.4504   -0.8697 N.am      2 UNK        -0.4145 
     35 C          28.4642   23.0853   -0.0931 C.2       1 UNK         0.5006 
     36 O          28.1537   23.8703    0.8004 O.2       1 UNK        -0.5103 
     37 C          26.4314   27.7209    3.8757 C.2       5 UNK         0.5055 
     38 O          26.2952   28.1178    5.0342 O.2       5 UNK        -0.5220 
     39 N          25.8387   28.3035    2.8226 N.am      6 UNK        -0.4450 
     40 CA         24.9878   29.4931    2.9035 C.3       6 UNK         0.0367 
     41 CB         23.8113   29.3209    1.9267 C.3       6 UNK        -0.1929 
     42 C          25.7510   30.7979    2.6055 C.2       6 UNK         0.5070 
     43 O          25.1519   31.8693    2.7114 O.2       6 UNK        -0.5237 
     44 N          27.0305   30.7090    2.2202 N.am      7 UNK        -0.4739 
     45 CA         27.8704   31.8496    1.8552 C.3       7 UNK         0.0276 
     46 CB         28.7302   31.4483    0.6438 C.3       7 UNK        -0.1927 
     47 C          28.7754   32.2611    3.0246 C.2       7 UNK         0.5013 
     48 O          29.0579   31.4507    3.9103 O.2       7 UNK        -0.5193 
     49 N          29.2925   33.4953    2.9649 N.am      8 UNK        -0.4253 
     50 CA         30.3468   34.0074    3.8485 C.3       8 UNK         0.0242 
     51 CB         30.2175   35.5392    3.9503 C.3       8 UNK        -0.2000 
     52 C          31.7345   33.5569    3.3459 C.2       8 UNK         0.4948 
     53 O          32.5908   34.3908    3.0434 O.2       8 UNK        -0.5275 
     54 N          31.9010   32.2378    3.2066 N.am      9 UNK        -0.4246 
     55 CA         33.0830   31.5781    2.6587 C.3       9 UNK         0.0261 
     56 CB         32.6477   30.2101    2.1077 C.3       9 UNK        -0.1959 
     57 C          34.2069   31.4305    3.6983 C.2       9 UNK         0.5033 
     58 O          33.9710   31.5588    4.9032 O.2       9 UNK        -0.5390 
     59 N          35.4124   31.1167    3.2015 N.am      10 UNK        -0.4215 
     60 CA         36.6556   30.9533    3.9689 C.3       10 UNK         0.0240 
     61 CB         37.8205   30.7351    2.9885 C.3       10 UNK        -0.1982 
     62 C          36.6372   29.8400    5.0360 C.2       10 UNK         0.4970 
     63 O          37.4976   29.8467    5.9175 O.2       10 UNK        -0.4916 
     64 N          35.6660   28.9221    4.9547 N.am      11 UNK        -0.4279 
     65 CA         35.3471   27.9338    5.9953 C.3       11 UNK         0.1003 
     66 C          34.8458   28.5454    7.3402 C.2       11 UNK         0.5709 
     67 N          34.3755   29.7886    7.3736 N.am      11 UNK        -0.7358 
     68 O          34.8978   27.8798    8.3719 O.2       11 UNK        -0.4999 
     69 C69        34.3724   26.8482    5.4630 C.3       12 UNK        -0.0954 
     70 S70        32.8008   27.5535    4.8557 S.3       12 UNK        -0.2268 
     71 C71        32.5763   26.7116    3.2567 C.3       12 UNK         0.0203 
     72 H72        30.9733   24.4775   -4.4827 H         1 UNK         0.0888 
     73 H73        30.9837   22.7224   -4.2950 H         1 UNK         0.0888 
     74 H74        29.5213   23.5422   -4.8488 H         1 UNK         0.0888 
     75 H75        30.8470   22.1035   -2.1586 H         1 UNK         0.3017 
     76 H76        30.4753   23.7303    0.0086 H         1 UNK         0.0873 
     77 H77        30.2268   20.7046   -0.2581 H         1 UNK         0.0745 
     78 H78        30.0582   21.4828    1.2861 H         1 UNK         0.0745 
     79 H79        32.1463   20.8171    2.7053 H         1 UNK         0.0705 
     80 H80        33.6147   21.7293    2.4829 H         1 UNK         0.0705 
     81 H81        33.4459   24.3115    2.2536 H         1 UNK         0.1334 
     82 H82        30.2895   26.0712    4.5552 H         1 UNK         0.1417 
     83 H83        30.2320   21.8718    3.7137 H         1 UNK         0.1562 
     84 H84        28.6498   24.6514    5.6587 H         1 UNK         0.0748 
     85 H85        28.8716   22.9246    5.6254 H         1 UNK         0.0748 
     86 H86        26.1112   25.2715    4.9790 H         1 UNK         0.0940 
     87 H87        25.6392   25.1238    3.3100 H         1 UNK         0.0940 
     88 H88        28.1423   26.5604    4.3221 H         1 UNK         0.0703 
     89 H89        27.7278   25.6316    1.6992 H         1 UNK         0.3081 
     90 H90        29.1584   28.3893   -0.0672 H         1 UNK         0.0719 
     91 H91        31.2663   27.4239    0.4518 H         1 UNK         0.0809 
     92 H92        30.5994   25.8198    0.6955 H         1 UNK         0.0809 
     93 H93        30.7113   26.5042   -0.9305 H         1 UNK         0.0809 
     94 H94        28.4935   25.9391   -1.1661 H         1 UNK         0.2990 
     95 H95        24.9760   26.4930   -1.6046 H         1 UNK         0.0690 
     96 H96        25.7508   26.2643   -3.9532 H         1 UNK         0.0788 
     97 H97        27.4103   26.6033   -3.4662 H         1 UNK         0.0788 
     98 H98        26.1734   27.8430   -3.3097 H         1 UNK         0.0788 
     99 H99        27.1422   24.5170   -2.1158 H         1 UNK         0.2993 
    100 H100       25.8421   22.2435    0.2494 H         1 UNK         0.0949 
    101 H101       25.7255   20.6086   -1.6140 H         1 UNK         0.0767 
    102 H102       24.3560   21.7032   -1.6969 H         1 UNK         0.0767 
    103 H103       25.7089   21.9156   -2.7999 H         1 UNK         0.0767 
    104 H104       27.9203   21.8460   -1.6000 H         1 UNK         0.3013 
    105 H105       26.0273   27.9575    1.8855 H         1 UNK         0.3121 
    106 H106       24.5735   29.5870    3.9095 H         1 UNK         0.0774 
    107 H107       24.1500   29.2694    0.8914 H         1 UNK         0.0815 
    108 H108       23.1158   30.1581    1.9995 H         1 UNK         0.0815 
    109 H109       23.2466   28.4135    2.1408 H         1 UNK         0.0815 
    110 H110       27.5004   29.8119    2.2690 H         1 UNK         0.2987 
    111 H111       27.2480   32.7025    1.5748 H         1 UNK         0.0949 
    112 H112       29.4302   30.6506    0.8945 H         1 UNK         0.0806 
    113 H113       28.1122   31.1027   -0.1854 H         1 UNK         0.0806 
    114 H114       29.3181   32.2918    0.2797 H         1 UNK         0.0806 
    115 H115       29.0420   34.0867    2.1849 H         1 UNK         0.3010 
    116 H116       30.2138   33.5949    4.8513 H         1 UNK         0.0829 
    117 H117       30.9704   35.9501    4.6244 H         1 UNK         0.0813 
    118 H118       30.3483   36.0228    2.9813 H         1 UNK         0.0813 
    119 H119       29.2423   35.8295    4.3415 H         1 UNK         0.0813 
    120 H120       31.1458   31.6364    3.5167 H         1 UNK         0.3038 
    121 H121       33.4682   32.1790    1.8319 H         1 UNK         0.0769 
    122 H122       31.9720   30.3253    1.2601 H         1 UNK         0.0811 
    123 H123       32.1219   29.6318    2.8665 H         1 UNK         0.0811 
    124 H124       33.4955   29.6166    1.7636 H         1 UNK         0.0811 
    125 H125       35.5003   31.0185    2.1998 H         1 UNK         0.3204 
    126 H126       36.8295   31.8912    4.5003 H         1 UNK         0.0748 
    127 H127       38.7695   30.6471    3.5197 H         1 UNK         0.0771 
    128 H128       37.6899   29.8238    2.4033 H         1 UNK         0.0771 
    129 H129       37.9193   31.5703    2.2948 H         1 UNK         0.0771 
    130 H130       34.9892   29.0036    4.2121 H         1 UNK         0.2980 
    131 H131       36.2832   27.4270    6.2368 H         1 UNK         0.0545 
    132 H132       34.0594   30.1722    8.2495 H         1 UNK         0.3459 
    133 H133       34.2995   30.3383    6.5244 H         1 UNK         0.3459 
    134 H134       34.1479   26.1113    6.2363 H         1 UNK         0.0616 
    135 H135       34.8543   26.2916    4.6582 H         1 UNK         0.0616 
    136 H136       31.9097   27.3219    2.6503 H         1 UNK         0.0634 
    137 H137       33.5258   26.6634    2.7217 H         1 UNK         0.0634 
@<TRIPOS>BOND
     1    1    2 1    
     2    1   72 1    
     3    1   73 1    
     4    1   74 1    
     5    2    3 2    
     6    2    4 am   BACKBONE|DICT|INTERRES
     7    4    5 1    
     8    4   75 1    
     9    5    6 1    
    10    5   35 1    
    11    5   76 1    
    12    6    7 1    
    13    6   77 1    
    14    6   78 1    
    15    7    8 1    
    16    8    9 1    
    17    8   79 1    
    18    8   80 1    
    19    9   10 ar   
    20    9   14 ar   
    21   10   11 ar   
    22   10   81 1    
    23   11   12 ar   
    24   11   71 1    
    25   12   13 ar   
    26   12   82 1    
    27   13   14 ar   
    28   13   15 1    
    29   14   83 1    
    30   15   16 1    
    31   15   84 1    
    32   15   85 1    
    33   16   17 1    
    34   17   18 1    
    35   17   86 1    
    36   17   87 1    
    37   18   19 1    
    38   18   37 1    
    39   18   88 1    
    40   19   20 am   BACKBONE|DICT|INTERRES
    41   19   89 1    
    42   20   21 2    
    43   20   22 1    
    44   22   23 1    
    45   22   24 1    
    46   22   90 1    
    47   23   91 1    
    48   23   92 1    
    49   23   93 1    
    50   24   25 am   BACKBONE|DICT|INTERRES
    51   24   94 1    
    52   25   26 2    
    53   25   27 1    
    54   27   28 1    
    55   27   29 1    
    56   27   95 1    
    57   28   96 1    
    58   28   97 1    
    59   28   98 1    
    60   29   30 am   BACKBONE|DICT|INTERRES
    61   29   99 1    
    62   30   31 2    
    63   30   32 1    
    64   32   33 1    
    65   32   34 1    
    66   32  100 1    
    67   33  101 1    
    68   33  102 1    
    69   33  103 1    
    70   34   35 am   BACKBONE|DICT|INTERRES
    71   34  104 1    
    72   35   36 2    
    73   37   38 2    
    74   37   39 am   BACKBONE|DICT|INTERRES
    75   39   40 1    
    76   39  105 1    
    77   40   41 1    
    78   40   42 1    
    79   40  106 1    
    80   41  107 1    
    81   41  108 1    
    82   41  109 1    
    83   42   43 2    
    84   42   44 am   BACKBONE|DICT|INTERRES
    85   44   45 1    
    86   44  110 1    
    87   45   46 1    
    88   45   47 1    
    89   45  111 1    
    90   46  112 1    
    91   46  113 1    
    92   46  114 1    
    93   47   48 2    
    94   47   49 am   BACKBONE|DICT|INTERRES
    95   49   50 1    
    96   49  115 1    
    97   50   51 1    
    98   50   52 1    
    99   50  116 1    
   100   51  117 1    
   101   51  118 1    
   102   51  119 1    
   103   52   53 2    
   104   52   54 am   BACKBONE|DICT|INTERRES
   105   54   55 1    
   106   54  120 1    
   107   55   56 1    
   108   55   57 1    
   109   55  121 1    
   110   56  122 1    
   111   56  123 1    
   112   56  124 1    
   113   57   58 2    
   114   57   59 am   BACKBONE|DICT|INTERRES
   115   59   60 1    
   116   59  125 1    
   117   60   61 1    
   118   60   62 1    
   119   60  126 1    
   120   61  127 1    
   121   61  128 1    
   122   61  129 1    
   123   62   63 2    
   124   62   64 am   BACKBONE|DICT|INTERRES
   125   64   65 1    
   126   64  130 1    
   127   65   66 1    
   128   65   69 1    
   129   65  131 1    
   130   66   67 am   BACKBONE|DICT|INTERRES
   131   66   68 2    
   132   67  132 1    
   133   67  133 1    
   134   69   70 1    
   135   69  134 1    
   136   69  135 1    
   137   70   71 1    
   138   71  136 1    
   139   71  137 1    
@<TRIPOS>SUBSTRUCTURE
     1 UNK         1 GROUP             0       ****    0 ROOT    
