@<TRIPOS>MOLECULE
3R136
137   139    1
SMALL
USER_CHARGES


@<TRIPOS>ATOM
      1 CA         29.3563   21.6273   -0.6662 C.3       0 UNK        -0.1979 
      2 C          30.5683   21.7011   -1.5948 C.2       0 UNK         0.4864 
      3 O          31.1340   20.6497   -1.8910 O.2       0 UNK        -0.5359 
      4 N          31.0350   22.8642   -2.0802 N.am      1 UNK        -0.4318 
      5 CA         30.5623   24.2515   -1.9325 C.3       1 UNK         0.0824 
      6 C6         30.6062   24.7977   -0.4765 C.3       12 UNK        -0.0944 
      7 S7         32.3143   24.8822    0.1558 S.3       12 UNK        -0.2672 
      8 C8         32.3898   23.4663    1.2966 C.3       12 UNK         0.0333 
      9 C9         31.7321   23.7706    2.6343 C.ar      12 UNK        -0.0807 
     10 C10        32.4319   24.4914    3.6069 C.ar      12 UNK        -0.0894 
     11 C11        31.8522   24.7465    4.8526 C.ar      12 UNK        -0.0804 
     12 C12        30.5639   24.2779    5.1236 C.ar      12 UNK        -0.0824 
     13 C13        29.8527   23.5600    4.1583 C.ar      12 UNK        -0.0762 
     14 C14        30.4423   23.3084    2.9159 C.ar      12 UNK        -0.0782 
     15 C15        28.4603   23.0288    4.4666 C.3       12 UNK         0.0230 
     16 S16        27.1517   24.0592    3.7324 S.3       12 UNK        -0.2608 
     17 C17        27.2428   25.5815    4.7379 C.3       12 UNK        -0.0989 
     18 CA         27.5960   26.8206    3.8810 C.3       5 UNK         0.0716 
     19 N          26.5745   27.0721    2.8581 N.am      5 UNK        -0.4135 
     20 C          26.5696   28.0836    1.9831 C.2       4 UNK         0.5031 
     21 O          27.4919   28.8947    1.8750 O.2       4 UNK        -0.5229 
     22 CA         25.3337   28.1893    1.0727 C.3       4 UNK         0.0329 
     23 CB         25.1981   29.5726    0.4115 C.3       4 UNK        -0.2001 
     24 N          25.3591   27.1746    0.0231 N.am      4 UNK        -0.4303 
     25 C          25.0487   25.8830    0.1678 C.2       3 UNK         0.5044 
     26 O          24.7119   25.3871    1.2438 O.2       3 UNK        -0.5152 
     27 CA         25.1019   24.9882   -1.0873 C.3       3 UNK         0.0319 
     28 CB         23.7504   25.0141   -1.8264 C.3       3 UNK        -0.2001 
     29 N          26.2137   25.2421   -2.0191 N.am      3 UNK        -0.4354 
     30 C          26.5000   26.3325   -2.7459 C.2       2 UNK         0.4964 
     31 O          25.8471   27.3763   -2.6993 O.2       2 UNK        -0.5047 
     32 CA         27.7402   26.2442   -3.6606 C.3       2 UNK         0.0288 
     33 CB         28.0564   27.5803   -4.3606 C.3       2 UNK        -0.2113 
     34 N          28.9412   25.7844   -2.9523 N.am      2 UNK        -0.4145 
     35 C          29.2092   24.5112   -2.6310 C.2       1 UNK         0.5006 
     36 O          28.4291   23.5864   -2.8709 O.2       1 UNK        -0.5103 
     37 C          27.8030   28.0622    4.7763 C.2       5 UNK         0.5055 
     38 O          26.8202   28.6339    5.2541 O.2       5 UNK        -0.5220 
     39 N          29.0711   28.4563    4.9590 N.am      6 UNK        -0.4450 
     40 CA         29.5420   29.6519    5.6750 C.3       6 UNK         0.0367 
     41 CB         29.1037   29.6429    7.1552 C.3       6 UNK        -0.1929 
     42 C          29.2469   30.9923    4.9693 C.2       6 UNK         0.5070 
     43 O          29.4428   32.0429    5.5826 O.2       6 UNK        -0.5237 
     44 N          28.8293   30.9519    3.6968 N.am      7 UNK        -0.4739 
     45 CA         28.7015   32.1206    2.8216 C.3       7 UNK         0.0276 
     46 CB         27.2183   32.4213    2.5598 C.3       7 UNK        -0.1927 
     47 C          29.4662   31.8963    1.5096 C.2       7 UNK         0.5013 
     48 O          30.1849   32.7936    1.0690 O.2       7 UNK        -0.5193 
     49 N          29.3340   30.6955    0.9267 N.am      8 UNK        -0.4253 
     50 CA         30.0626   30.2470   -0.2640 C.3       8 UNK         0.0242 
     51 CB         29.3628   29.0034   -0.8400 C.3       8 UNK        -0.2000 
     52 C          31.5503   29.9454    0.0000 C.2       8 UNK         0.4948 
     53 O          32.3227   29.8708   -0.9567 O.2       8 UNK        -0.5275 
     54 N          31.9264   29.7749    1.2723 N.am      9 UNK        -0.4246 
     55 CA         33.2894   29.5558    1.7386 C.3       9 UNK         0.0261 
     56 CB         33.5408   28.0483    1.9110 C.3       9 UNK        -0.1959 
     57 C          33.4666   30.2962    3.0662 C.2       9 UNK         0.5033 
     58 O          32.4981   30.4464    3.8173 O.2       9 UNK        -0.5390 
     59 N          34.7037   30.7222    3.3455 N.am      10 UNK        -0.4215 
     60 CA         35.1009   31.3957    4.5824 C.3       10 UNK         0.0240 
     61 CB         36.3390   32.2690    4.3029 C.3       10 UNK        -0.1982 
     62 C          35.3421   30.3666    5.7008 C.2       10 UNK         0.4970 
     63 O          36.4892   30.1167    6.0757 O.2       10 UNK        -0.4916 
     64 N          34.2509   29.7620    6.1818 N.am      11 UNK        -0.4279 
     65 CA         34.2462   28.7132    7.2155 C.3       11 UNK         0.1003 
     66 C          34.6819   29.1812    8.6355 C.2       11 UNK         0.5709 
     67 N          34.7142   30.4755    8.9309 N.am      11 UNK        -0.7358 
     68 O          35.0002   28.3509    9.4835 O.2       11 UNK        -0.4999 
     69 C69        32.8796   27.9843    7.2830 C.3       12 UNK        -0.0954 
     70 S70        32.3445   27.3092    5.6754 S.3       12 UNK        -0.2268 
     71 C71        32.6107   25.5309    5.9085 C.3       12 UNK         0.0203 
     72 H72        28.6455   20.9004   -1.0580 H         1 UNK         0.0888 
     73 H73        29.6663   21.2868    0.3205 H         1 UNK         0.0888 
     74 H74        28.8185   22.5629   -0.5509 H         1 UNK         0.0888 
     75 H75        31.8362   22.7915   -2.6909 H         1 UNK         0.3017 
     76 H76        31.2829   24.8347   -2.5090 H         1 UNK         0.0873 
     77 H77        30.2155   25.8158   -0.4368 H         1 UNK         0.0745 
     78 H78        29.9839   24.2256    0.2076 H         1 UNK         0.0745 
     79 H79        33.4378   23.2124    1.4625 H         1 UNK         0.0705 
     80 H80        31.9404   22.5883    0.8333 H         1 UNK         0.0705 
     81 H81        33.4279   24.8552    3.3932 H         1 UNK         0.1334 
     82 H82        30.1180   24.4709    6.0897 H         1 UNK         0.1417 
     83 H83        29.8943   22.7459    2.1740 H         1 UNK         0.1562 
     84 H84        28.3024   22.9516    5.5436 H         1 UNK         0.0748 
     85 H85        28.3664   22.0144    4.0758 H         1 UNK         0.0748 
     86 H86        27.9703   25.4470    5.5394 H         1 UNK         0.0940 
     87 H87        26.2799   25.7215    5.2334 H         1 UNK         0.0940 
     88 H88        28.5303   26.6177    3.3523 H         1 UNK         0.0703 
     89 H89        25.8132   26.4055    2.8134 H         1 UNK         0.3081 
     90 H90        24.4476   28.0306    1.6911 H         1 UNK         0.0719 
     91 H91        26.0794   29.8359   -0.1746 H         1 UNK         0.0809 
     92 H92        24.3343   29.6110   -0.2524 H         1 UNK         0.0809 
     93 H93        25.0537   30.3468    1.1641 H         1 UNK         0.0809 
     94 H94        25.6061   27.4842   -0.9146 H         1 UNK         0.2990 
     95 H95        25.2562   23.9697   -0.7270 H         1 UNK         0.0690 
     96 H96        23.7391   24.3077   -2.6565 H         1 UNK         0.0788 
     97 H97        23.5228   26.0035   -2.2248 H         1 UNK         0.0788 
     98 H98        22.9344   24.7393   -1.1565 H         1 UNK         0.0788 
     99 H99        26.8464   24.4571   -2.1492 H         1 UNK         0.2993 
    100 H100       27.4990   25.5179   -4.4403 H         1 UNK         0.0949 
    101 H101       28.2777   28.3721   -3.6446 H         1 UNK         0.0767 
    102 H102       28.9097   27.4854   -5.0325 H         1 UNK         0.0767 
    103 H103       27.2108   27.9151   -4.9632 H         1 UNK         0.0767 
    104 H104       29.6157   26.4970   -2.7155 H         1 UNK         0.3013 
    105 H105       29.8066   27.9080    4.5327 H         1 UNK         0.3121 
    106 H106       30.6289   29.5845    5.6705 H         1 UNK         0.0774 
    107 H107       29.6107   30.4285    7.7166 H         1 UNK         0.0815 
    108 H108       28.0323   29.8103    7.2645 H         1 UNK         0.0815 
    109 H109       29.3493   28.6957    7.6352 H         1 UNK         0.0815 
    110 H110       28.6350   30.0507    3.2778 H         1 UNK         0.2987 
    111 H111       29.1457   32.9986    3.2962 H         1 UNK         0.0949 
    112 H112       27.1029   33.2778    1.8943 H         1 UNK         0.0806 
    113 H113       26.7158   31.5746    2.0964 H         1 UNK         0.0806 
    114 H114       26.6939   32.6547    3.4865 H         1 UNK         0.0806 
    115 H115       28.6655   30.0291    1.3150 H         1 UNK         0.3010 
    116 H116       30.0192   31.0429   -1.0105 H         1 UNK         0.0829 
    117 H117       28.3307   29.2192   -1.1166 H         1 UNK         0.0813 
    118 H118       29.8729   28.6519   -1.7372 H         1 UNK         0.0813 
    119 H119       29.3520   28.1806   -0.1242 H         1 UNK         0.0813 
    120 H120       31.2521   29.9247    2.0113 H         1 UNK         0.3038 
    121 H121       33.9996   29.9650    1.0166 H         1 UNK         0.0769 
    122 H122       34.5343   27.8551    2.3172 H         1 UNK         0.0811 
    123 H123       33.4761   27.5307    0.9545 H         1 UNK         0.0811 
    124 H124       32.8164   27.5919    2.5870 H         1 UNK         0.0811 
    125 H125       35.4456   30.5190    2.6905 H         1 UNK         0.3204 
    126 H126       34.2949   32.0577    4.9074 H         1 UNK         0.0748 
    127 H127       36.6601   32.7903    5.2059 H         1 UNK         0.0771 
    128 H128       37.1845   31.6772    3.9497 H         1 UNK         0.0771 
    129 H129       36.1252   33.0291    3.5512 H         1 UNK         0.0771 
    130 H130       33.3580   29.9789    5.7554 H         1 UNK         0.2980 
    131 H131       34.9893   27.9742    6.9097 H         1 UNK         0.0545 
    132 H132       34.4532   31.1637    8.2437 H         1 UNK         0.3459 
    133 H133       35.0016   30.7645    9.8526 H         1 UNK         0.3459 
    134 H134       32.1049   28.6716    7.6271 H         1 UNK         0.0616 
    135 H135       32.9110   27.1778    8.0176 H         1 UNK         0.0616 
    136 H136       32.2768   25.2310    6.9029 H         1 UNK         0.0634 
    137 H137       33.6785   25.3129    5.8567 H         1 UNK         0.0634 
@<TRIPOS>BOND
     1    1    2 1    
     2    1   72 1    
     3    1   73 1    
     4    1   74 1    
     5    2    3 2    
     6    2    4 am   BACKBONE|DICT|INTERRES
     7    4    5 1    
     8    4   75 1    
     9    5    6 1    
    10    5   35 1    
    11    5   76 1    
    12    6    7 1    
    13    6   77 1    
    14    6   78 1    
    15    7    8 1    
    16    8    9 1    
    17    8   79 1    
    18    8   80 1    
    19    9   10 ar   
    20    9   14 ar   
    21   10   11 ar   
    22   10   81 1    
    23   11   12 ar   
    24   11   71 1    
    25   12   13 ar   
    26   12   82 1    
    27   13   14 ar   
    28   13   15 1    
    29   14   83 1    
    30   15   16 1    
    31   15   84 1    
    32   15   85 1    
    33   16   17 1    
    34   17   18 1    
    35   17   86 1    
    36   17   87 1    
    37   18   19 1    
    38   18   37 1    
    39   18   88 1    
    40   19   20 am   BACKBONE|DICT|INTERRES
    41   19   89 1    
    42   20   21 2    
    43   20   22 1    
    44   22   23 1    
    45   22   24 1    
    46   22   90 1    
    47   23   91 1    
    48   23   92 1    
    49   23   93 1    
    50   24   25 am   BACKBONE|DICT|INTERRES
    51   24   94 1    
    52   25   26 2    
    53   25   27 1    
    54   27   28 1    
    55   27   29 1    
    56   27   95 1    
    57   28   96 1    
    58   28   97 1    
    59   28   98 1    
    60   29   30 am   BACKBONE|DICT|INTERRES
    61   29   99 1    
    62   30   31 2    
    63   30   32 1    
    64   32   33 1    
    65   32   34 1    
    66   32  100 1    
    67   33  101 1    
    68   33  102 1    
    69   33  103 1    
    70   34   35 am   BACKBONE|DICT|INTERRES
    71   34  104 1    
    72   35   36 2    
    73   37   38 2    
    74   37   39 am   BACKBONE|DICT|INTERRES
    75   39   40 1    
    76   39  105 1    
    77   40   41 1    
    78   40   42 1    
    79   40  106 1    
    80   41  107 1    
    81   41  108 1    
    82   41  109 1    
    83   42   43 2    
    84   42   44 am   BACKBONE|DICT|INTERRES
    85   44   45 1    
    86   44  110 1    
    87   45   46 1    
    88   45   47 1    
    89   45  111 1    
    90   46  112 1    
    91   46  113 1    
    92   46  114 1    
    93   47   48 2    
    94   47   49 am   BACKBONE|DICT|INTERRES
    95   49   50 1    
    96   49  115 1    
    97   50   51 1    
    98   50   52 1    
    99   50  116 1    
   100   51  117 1    
   101   51  118 1    
   102   51  119 1    
   103   52   53 2    
   104   52   54 am   BACKBONE|DICT|INTERRES
   105   54   55 1    
   106   54  120 1    
   107   55   56 1    
   108   55   57 1    
   109   55  121 1    
   110   56  122 1    
   111   56  123 1    
   112   56  124 1    
   113   57   58 2    
   114   57   59 am   BACKBONE|DICT|INTERRES
   115   59   60 1    
   116   59  125 1    
   117   60   61 1    
   118   60   62 1    
   119   60  126 1    
   120   61  127 1    
   121   61  128 1    
   122   61  129 1    
   123   62   63 2    
   124   62   64 am   BACKBONE|DICT|INTERRES
   125   64   65 1    
   126   64  130 1    
   127   65   66 1    
   128   65   69 1    
   129   65  131 1    
   130   66   67 am   BACKBONE|DICT|INTERRES
   131   66   68 2    
   132   67  132 1    
   133   67  133 1    
   134   69   70 1    
   135   69  134 1    
   136   69  135 1    
   137   70   71 1    
   138   71  136 1    
   139   71  137 1    
@<TRIPOS>SUBSTRUCTURE
     1 UNK         1 GROUP             0       ****    0 ROOT    
