@<TRIPOS>MOLECULE
3R136
137   139    1
SMALL
USER_CHARGES


@<TRIPOS>ATOM
      1 CA         35.3681   26.5062   -1.9412 C.3       0 UNK        -0.1979 
      2 C          34.0440   27.0077   -1.3841 C.2       0 UNK         0.4864 
      3 O          33.6727   28.1552   -1.6334 O.2       0 UNK        -0.5359 
      4 N          33.3381   26.1610   -0.6239 N.am      1 UNK        -0.4318 
      5 CA         32.0220   26.4499   -0.0474 C.3       1 UNK         0.0824 
      6 C6         31.6520   25.4355    1.0667 C.3       12 UNK        -0.0944 
      7 S7         31.5580   23.6981    0.4998 S.3       12 UNK        -0.2672 
      8 C8         31.9502   22.7841    2.0226 C.3       12 UNK         0.0333 
      9 C9         30.9172   23.0282    3.1126 C.ar      12 UNK        -0.0807 
     10 C10        31.2174   23.8748    4.1825 C.ar      12 UNK        -0.0894 
     11 C11        30.2804   24.1030    5.1927 C.ar      12 UNK        -0.0804 
     12 C12        29.0383   23.4660    5.1351 C.ar      12 UNK        -0.0824 
     13 C13        28.7201   22.6228    4.0643 C.ar      12 UNK        -0.0762 
     14 C14        29.6657   22.4060    3.0566 C.ar      12 UNK        -0.0782 
     15 C15        27.3628   21.9331    4.0025 C.3       12 UNK         0.0230 
     16 S16        26.1611   22.8536    2.9848 S.3       12 UNK        -0.2608 
     17 C17        25.9209   24.3643    3.9787 C.3       12 UNK        -0.0989 
     18 CA         26.5578   25.6036    3.2859 C.3       5 UNK         0.0716 
     19 N          25.7985   26.0579    2.1112 N.am      5 UNK        -0.4135 
     20 C          24.5562   26.5740    2.1163 C.2       4 UNK         0.5031 
     21 O          23.8761   26.7107    3.1341 O.2       4 UNK        -0.5229 
     22 CA         23.9589   27.0495    0.7757 C.3       4 UNK         0.0329 
     23 CB         23.9500   28.5870    0.7185 C.3       4 UNK        -0.2001 
     24 N          24.6622   26.5422   -0.4018 N.am      4 UNK        -0.4303 
     25 C          24.6795   25.2667   -0.8134 C.2       3 UNK         0.5044 
     26 O          23.9813   24.3798   -0.3222 O.2       3 UNK        -0.5152 
     27 CA         25.6660   24.9141   -1.9465 C.3       3 UNK         0.0319 
     28 CB         24.9132   24.7175   -3.2725 C.3       3 UNK        -0.2001 
     29 N          26.7438   25.8951   -2.1472 N.am      3 UNK        -0.4354 
     30 C          27.6591   26.2415   -1.2307 C.2       2 UNK         0.4964 
     31 O          27.6885   25.7874   -0.0837 O.2       2 UNK        -0.5047 
     32 CA         28.6408   27.3483   -1.6369 C.3       2 UNK         0.0288 
     33 CB         27.9966   28.7305   -1.4342 C.3       2 UNK        -0.2113 
     34 N          29.8470   27.2656   -0.8171 N.am      2 UNK        -0.4145 
     35 C          30.9238   26.5373   -1.1319 C.2       1 UNK         0.5006 
     36 O          31.0526   25.9349   -2.2028 O.2       1 UNK        -0.5103 
     37 C          26.8652   26.7701    4.2535 C.2       5 UNK         0.5055 
     38 O          26.8226   26.5957    5.4730 O.2       5 UNK        -0.5220 
     39 N          27.1696   27.9424    3.6819 N.am      6 UNK        -0.4450 
     40 CA         27.4954   29.1974    4.3512 C.3       6 UNK         0.0367 
     41 CB         26.2792   29.7229    5.1457 C.3       6 UNK        -0.1929 
     42 C          27.9015   30.2161    3.2772 C.2       6 UNK         0.5070 
     43 O          27.6716   29.9747    2.0893 O.2       6 UNK        -0.5237 
     44 N          28.4479   31.3532    3.7292 N.am      7 UNK        -0.4739 
     45 CA         28.6771   32.5925    2.9708 C.3       7 UNK         0.0276 
     46 CB         27.3292   33.2039    2.5274 C.3       7 UNK        -0.1927 
     47 C          29.6854   32.4948    1.8065 C.2       7 UNK         0.5013 
     48 O          29.6237   33.3156    0.8886 O.2       7 UNK        -0.5193 
     49 N          30.6205   31.5398    1.8686 N.am      8 UNK        -0.4253 
     50 CA         31.7154   31.3926    0.9114 C.3       8 UNK         0.0242 
     51 CB         31.2431   30.6101   -0.3241 C.3       8 UNK        -0.2000 
     52 C          32.8861   30.6843    1.5952 C.2       8 UNK         0.4948 
     53 O          32.6550   29.7624    2.3821 O.2       8 UNK        -0.5275 
     54 N          34.1124   31.1397    1.2928 N.am      9 UNK        -0.4246 
     55 CA         35.4102   30.6061    1.7425 C.3       9 UNK         0.0261 
     56 CB         35.7064   29.2775    1.0158 C.3       9 UNK        -0.1959 
     57 C          35.5629   30.4702    3.2730 C.2       9 UNK         0.5033 
     58 O          36.2932   29.5911    3.7348 O.2       9 UNK        -0.5390 
     59 N          34.8270   31.2963    4.0351 N.am      10 UNK        -0.4215 
     60 CA         34.6405   31.2261    5.4933 C.3       10 UNK         0.0240 
     61 CB         35.9306   31.6569    6.2235 C.3       10 UNK        -0.1982 
     62 C          34.1113   29.8571    5.9837 C.2       10 UNK         0.4970 
     63 O          34.3724   29.4770    7.1263 O.2       10 UNK        -0.4916 
     64 N          33.3972   29.1362    5.1059 N.am      11 UNK        -0.4279 
     65 CA         32.9713   27.7397    5.2682 C.3       11 UNK         0.1003 
     66 C          34.1437   26.7075    5.2931 C.2       11 UNK         0.5709 
     67 N          35.3451   27.0488    4.8400 N.am      11 UNK        -0.7358 
     68 O          33.9655   25.5644    5.7032 O.2       11 UNK        -0.4999 
     69 C69        31.9309   27.5567    6.4185 C.3       12 UNK        -0.0954 
     70 S70        30.3909   26.7746    5.8357 S.3       12 UNK        -0.2268 
     71 C71        30.6148   25.0415    6.3407 C.3       12 UNK         0.0203 
     72 H72        36.1850   27.1354   -1.5891 H         1 UNK         0.0888 
     73 H73        35.5755   25.4800   -1.6383 H         1 UNK         0.0888 
     74 H74        35.3539   26.5423   -3.0301 H         1 UNK         0.0888 
     75 H75        33.6671   25.2160   -0.4880 H         1 UNK         0.3017 
     76 H76        32.0933   27.4355    0.4195 H         1 UNK         0.0873 
     77 H77        30.6967   25.6976    1.5262 H         1 UNK         0.0745 
     78 H78        32.3897   25.5042    1.8678 H         1 UNK         0.0745 
     79 H79        31.9913   21.7182    1.7940 H         1 UNK         0.0705 
     80 H80        32.9491   23.0613    2.3634 H         1 UNK         0.0705 
     81 H81        32.1799   24.3644    4.2274 H         1 UNK         0.1334 
     82 H82        28.3185   23.6359    5.9236 H         1 UNK         0.1417 
     83 H83        29.4269   21.7568    2.2250 H         1 UNK         0.1562 
     84 H84        26.9582   21.7926    5.0062 H         1 UNK         0.0748 
     85 H85        27.4805   20.9324    3.5842 H         1 UNK         0.0748 
     86 H86        26.3360   24.1946    4.9711 H         1 UNK         0.0940 
     87 H87        24.8532   24.5095    4.1450 H         1 UNK         0.0940 
     88 H88        27.5372   25.3028    2.9087 H         1 UNK         0.0703 
     89 H89        26.2948   25.9743    1.2280 H         1 UNK         0.3081 
     90 H90        22.9269   26.6949    0.7333 H         1 UNK         0.0719 
     91 H91        24.9596   28.9996    0.7569 H         1 UNK         0.0809 
     92 H92        23.4717   28.9493   -0.1916 H         1 UNK         0.0809 
     93 H93        23.3971   29.0061    1.5605 H         1 UNK         0.0809 
     94 H94        25.2558   27.1972   -0.8880 H         1 UNK         0.2990 
     95 H95        26.1349   23.9660   -1.6749 H         1 UNK         0.0690 
     96 H96        25.5808   24.3708   -4.0616 H         1 UNK         0.0788 
     97 H97        24.4424   25.6416   -3.6104 H         1 UNK         0.0788 
     98 H98        24.1252   23.9701   -3.1678 H         1 UNK         0.0788 
     99 H99        26.7792   26.3363   -3.0556 H         1 UNK         0.2993 
    100 H100       28.8976   27.2286   -2.6920 H         1 UNK         0.0949 
    101 H101       28.6813   29.5302   -1.7164 H         1 UNK         0.0767 
    102 H102       27.1025   28.8444   -2.0484 H         1 UNK         0.0767 
    103 H103       27.7031   28.8942   -0.3965 H         1 UNK         0.0767 
    104 H104       29.7791   27.6655    0.1070 H         1 UNK         0.3013 
    105 H105       27.1895   28.0196    2.6716 H         1 UNK         0.3121 
    106 H106       28.3411   29.0317    5.0212 H         1 UNK         0.0774 
    107 H107       26.4891   30.6896    5.6046 H         1 UNK         0.0815 
    108 H108       25.4075   29.8500    4.5024 H         1 UNK         0.0815 
    109 H109       26.0000   29.0479    5.9541 H         1 UNK         0.0815 
    110 H110       28.6238   31.4245    4.7225 H         1 UNK         0.2987 
    111 H111       29.1276   33.2912    3.6775 H         1 UNK         0.0949 
    112 H112       27.4659   34.2022    2.1098 H         1 UNK         0.0806 
    113 H113       26.8434   32.5964    1.7629 H         1 UNK         0.0806 
    114 H114       26.6407   33.3004    3.3668 H         1 UNK         0.0806 
    115 H115       30.6359   30.8980    2.6506 H         1 UNK         0.3010 
    116 H116       32.0500   32.3840    0.5971 H         1 UNK         0.0829 
    117 H117       30.4712   31.1540   -0.8684 H         1 UNK         0.0813 
    118 H118       32.0653   30.4285   -1.0179 H         1 UNK         0.0813 
    119 H119       30.8333   29.6436   -0.0396 H         1 UNK         0.0813 
    120 H120       34.1761   31.9172    0.6491 H         1 UNK         0.3038 
    121 H121       36.1657   31.3292    1.4318 H         1 UNK         0.0769 
    122 H122       36.7098   28.9143    1.2417 H         1 UNK         0.0811 
    123 H123       35.6471   29.3994   -0.0654 H         1 UNK         0.0811 
    124 H124       35.0024   28.4961    1.3049 H         1 UNK         0.0811 
    125 H125       34.2603   31.9819    3.5558 H         1 UNK         0.3204 
    126 H126       33.8634   31.9516    5.7380 H         1 UNK         0.0748 
    127 H127       35.7649   31.7425    7.2982 H         1 UNK         0.0771 
    128 H128       36.7376   30.9385    6.0751 H         1 UNK         0.0771 
    129 H129       36.2787   32.6288    5.8737 H         1 UNK         0.0771 
    130 H130       33.2314   29.5153    4.1772 H         1 UNK         0.2980 
    131 H131       32.4732   27.5258    4.3218 H         1 UNK         0.0545 
    132 H132       36.0826   26.3636    4.8591 H         1 UNK         0.3459 
    133 H133       35.5396   27.9833    4.4924 H         1 UNK         0.3459 
    134 H134       32.3423   27.0089    7.2679 H         1 UNK         0.0616 
    135 H135       31.6357   28.5238    6.8278 H         1 UNK         0.0616 
    136 H136       29.9773   24.8406    7.2028 H         1 UNK         0.0634 
    137 H137       31.6373   24.8590    6.6706 H         1 UNK         0.0634 
@<TRIPOS>BOND
     1    1    2 1    
     2    1   72 1    
     3    1   73 1    
     4    1   74 1    
     5    2    3 2    
     6    2    4 am   BACKBONE|DICT|INTERRES
     7    4    5 1    
     8    4   75 1    
     9    5    6 1    
    10    5   35 1    
    11    5   76 1    
    12    6    7 1    
    13    6   77 1    
    14    6   78 1    
    15    7    8 1    
    16    8    9 1    
    17    8   79 1    
    18    8   80 1    
    19    9   10 ar   
    20    9   14 ar   
    21   10   11 ar   
    22   10   81 1    
    23   11   12 ar   
    24   11   71 1    
    25   12   13 ar   
    26   12   82 1    
    27   13   14 ar   
    28   13   15 1    
    29   14   83 1    
    30   15   16 1    
    31   15   84 1    
    32   15   85 1    
    33   16   17 1    
    34   17   18 1    
    35   17   86 1    
    36   17   87 1    
    37   18   19 1    
    38   18   37 1    
    39   18   88 1    
    40   19   20 am   BACKBONE|DICT|INTERRES
    41   19   89 1    
    42   20   21 2    
    43   20   22 1    
    44   22   23 1    
    45   22   24 1    
    46   22   90 1    
    47   23   91 1    
    48   23   92 1    
    49   23   93 1    
    50   24   25 am   BACKBONE|DICT|INTERRES
    51   24   94 1    
    52   25   26 2    
    53   25   27 1    
    54   27   28 1    
    55   27   29 1    
    56   27   95 1    
    57   28   96 1    
    58   28   97 1    
    59   28   98 1    
    60   29   30 am   BACKBONE|DICT|INTERRES
    61   29   99 1    
    62   30   31 2    
    63   30   32 1    
    64   32   33 1    
    65   32   34 1    
    66   32  100 1    
    67   33  101 1    
    68   33  102 1    
    69   33  103 1    
    70   34   35 am   BACKBONE|DICT|INTERRES
    71   34  104 1    
    72   35   36 2    
    73   37   38 2    
    74   37   39 am   BACKBONE|DICT|INTERRES
    75   39   40 1    
    76   39  105 1    
    77   40   41 1    
    78   40   42 1    
    79   40  106 1    
    80   41  107 1    
    81   41  108 1    
    82   41  109 1    
    83   42   43 2    
    84   42   44 am   BACKBONE|DICT|INTERRES
    85   44   45 1    
    86   44  110 1    
    87   45   46 1    
    88   45   47 1    
    89   45  111 1    
    90   46  112 1    
    91   46  113 1    
    92   46  114 1    
    93   47   48 2    
    94   47   49 am   BACKBONE|DICT|INTERRES
    95   49   50 1    
    96   49  115 1    
    97   50   51 1    
    98   50   52 1    
    99   50  116 1    
   100   51  117 1    
   101   51  118 1    
   102   51  119 1    
   103   52   53 2    
   104   52   54 am   BACKBONE|DICT|INTERRES
   105   54   55 1    
   106   54  120 1    
   107   55   56 1    
   108   55   57 1    
   109   55  121 1    
   110   56  122 1    
   111   56  123 1    
   112   56  124 1    
   113   57   58 2    
   114   57   59 am   BACKBONE|DICT|INTERRES
   115   59   60 1    
   116   59  125 1    
   117   60   61 1    
   118   60   62 1    
   119   60  126 1    
   120   61  127 1    
   121   61  128 1    
   122   61  129 1    
   123   62   63 2    
   124   62   64 am   BACKBONE|DICT|INTERRES
   125   64   65 1    
   126   64  130 1    
   127   65   66 1    
   128   65   69 1    
   129   65  131 1    
   130   66   67 am   BACKBONE|DICT|INTERRES
   131   66   68 2    
   132   67  132 1    
   133   67  133 1    
   134   69   70 1    
   135   69  134 1    
   136   69  135 1    
   137   70   71 1    
   138   71  136 1    
   139   71  137 1    
@<TRIPOS>SUBSTRUCTURE
     1 UNK         1 GROUP             0       ****    0 ROOT    
