@<TRIPOS>MOLECULE
3R136
137   139    1
SMALL
USER_CHARGES


@<TRIPOS>ATOM
      1 CA         31.9429   25.2786   -3.7916 C.3       0 UNK        -0.1979 
      2 C          30.9233   25.5602   -2.6985 C.2       0 UNK         0.4864 
      3 O          30.2120   26.5592   -2.7770 O.2       0 UNK        -0.5359 
      4 N          30.8594   24.6889   -1.6808 N.am      1 UNK        -0.4318 
      5 CA         29.9479   24.7529   -0.5291 C.3       1 UNK         0.0824 
      6 C6         30.3083   23.6329    0.4886 C.3       12 UNK        -0.0944 
      7 S7         29.0817   23.2588    1.7936 S.3       12 UNK        -0.2672 
      8 C8         30.0996   23.3196    3.2995 C.3       12 UNK         0.0333 
      9 C9         30.1369   24.7192    3.8895 C.ar      12 UNK        -0.0807 
     10 C10        31.2539   25.5440    3.7217 C.ar      12 UNK        -0.0894 
     11 C11        31.2904   26.8127    4.3114 C.ar      12 UNK        -0.0804 
     12 C12        30.1864   27.2655    5.0414 C.ar      12 UNK        -0.0824 
     13 C13        29.0646   26.4490    5.2121 C.ar      12 UNK        -0.0762 
     14 C14        29.0507   25.1749    4.6400 C.ar      12 UNK        -0.0782 
     15 C15        27.8781   26.9275    6.0374 C.3       12 UNK         0.0230 
     16 S16        26.3337   26.9631    5.0725 S.3       12 UNK        -0.2608 
     17 C17        26.7127   28.2345    3.8200 C.3       12 UNK        -0.0989 
     18 CA         26.9577   27.6438    2.4002 C.3       5 UNK         0.0716 
     19 N          25.8702   26.7925    1.8975 N.am      5 UNK        -0.4135 
     20 C          24.5884   27.1483    1.7241 C.2       4 UNK         0.5031 
     21 O          24.1408   28.2591    2.0134 O.2       4 UNK        -0.5229 
     22 CA         23.6290   26.1144    1.1008 C.3       4 UNK         0.0329 
     23 CB         22.9774   26.6812   -0.1733 C.3       4 UNK        -0.2001 
     24 N          24.2544   24.8359    0.7601 N.am      4 UNK        -0.4303 
     25 C          24.5631   23.8418    1.6001 C.2       3 UNK         0.5044 
     26 O          24.3617   23.8930    2.8130 O.2       3 UNK        -0.5152 
     27 CA         25.2273   22.5832    1.0003 C.3       3 UNK         0.0319 
     28 CB         24.1855   21.4754    0.7513 C.3       3 UNK        -0.2001 
     29 N          26.0544   22.8215   -0.1965 N.am      3 UNK        -0.4354 
     30 C          25.6837   23.2486   -1.4154 C.2       2 UNK         0.4964 
     31 O          24.5118   23.4574   -1.7309 O.2       2 UNK        -0.5047 
     32 CA         26.8015   23.5429   -2.4396 C.3       2 UNK         0.0288 
     33 CB         26.4268   24.7075   -3.3820 C.3       2 UNK        -0.2113 
     34 N          28.1254   23.7824   -1.8471 N.am      2 UNK        -0.4145 
     35 C          28.4653   24.7341   -0.9617 C.2       1 UNK         0.5006 
     36 O          27.6789   25.5563   -0.4824 O.2       1 UNK        -0.5103 
     37 C          27.3152   28.7304    1.3635 C.2       5 UNK         0.5055 
     38 O          27.4587   29.9035    1.7139 O.2       5 UNK        -0.5220 
     39 N          27.4356   28.3220    0.0921 N.am      6 UNK        -0.4450 
     40 CA         27.7694   29.2001   -1.0321 C.3       6 UNK         0.0367 
     41 CB         27.3091   28.5368   -2.3400 C.3       6 UNK        -0.1929 
     42 C          29.2645   29.5668   -1.0916 C.2       6 UNK         0.5070 
     43 O          29.6175   30.5369   -1.7637 O.2       6 UNK        -0.5237 
     44 N          30.1141   28.8033   -0.3912 N.am      7 UNK        -0.4739 
     45 CA         31.5458   29.0563   -0.2509 C.3       7 UNK         0.0276 
     46 CB         32.2451   27.7838    0.2570 C.3       7 UNK        -0.1927 
     47 C          31.7895   30.2380    0.6991 C.2       7 UNK         0.5013 
     48 O          31.5154   30.1224    1.8957 O.2       7 UNK        -0.5193 
     49 N          32.3045   31.3468    0.1550 N.am      8 UNK        -0.4253 
     50 CA         32.6681   32.5535    0.8977 C.3       8 UNK         0.0242 
     51 CB         32.6410   33.7582   -0.0619 C.3       8 UNK        -0.2000 
     52 C          34.0360   32.3719    1.5791 C.2       8 UNK         0.4948 
     53 O          35.0383   32.9127    1.1069 O.2       8 UNK        -0.5275 
     54 N          34.0543   31.5852    2.6582 N.am      9 UNK        -0.4246 
     55 CA         35.2259   31.2872    3.4754 C.3       9 UNK         0.0261 
     56 CB         35.8144   29.9326    3.0441 C.3       9 UNK        -0.1959 
     57 C          34.8085   31.2604    4.9487 C.2       9 UNK         0.5033 
     58 O          33.6366   31.0173    5.2519 O.2       9 UNK        -0.5390 
     59 N          35.7776   31.4797    5.8453 N.am      10 UNK        -0.4215 
     60 CA         35.6012   31.4811    7.3011 C.3       10 UNK         0.0240 
     61 CB         36.7215   32.3258    7.9383 C.3       10 UNK        -0.1982 
     62 C          35.5319   30.0520    7.8770 C.2       10 UNK         0.4970 
     63 O          36.3548   29.6821    8.7171 O.2       10 UNK        -0.4916 
     64 N          34.5640   29.2682    7.3919 N.am      11 UNK        -0.4279 
     65 CA         34.2755   27.8973    7.8315 C.3       11 UNK         0.1003 
     66 C          33.7682   27.8352    9.2986 C.2       11 UNK         0.5709 
     67 N          34.0882   26.7698   10.0207 N.am      11 UNK        -0.7358 
     68 O          33.0575   28.7201    9.7734 O.2       11 UNK        -0.4999 
     69 C69        33.2734   27.2003    6.8778 C.3       12 UNK        -0.0954 
     70 S70        33.9170   27.0439    5.1767 S.3       12 UNK        -0.2268 
     71 C71        32.5317   27.6866    4.1842 C.3       12 UNK         0.0203 
     72 H72        31.4404   25.1666   -4.7519 H         1 UNK         0.0888 
     73 H73        32.6458   26.1077   -3.8694 H         1 UNK         0.0888 
     74 H74        32.5112   24.3691   -3.5975 H         1 UNK         0.0888 
     75 H75        31.4905   23.9002   -1.6876 H         1 UNK         0.3017 
     76 H76        30.1102   25.7130   -0.0371 H         1 UNK         0.0873 
     77 H77        30.4739   22.6926   -0.0406 H         1 UNK         0.0745 
     78 H78        31.2660   23.8761    0.9509 H         1 UNK         0.0745 
     79 H79        29.6727   22.6337    4.0329 H         1 UNK         0.0705 
     80 H80        31.1057   22.9495    3.0966 H         1 UNK         0.0705 
     81 H81        32.1066   25.1914    3.1577 H         1 UNK         0.1334 
     82 H82        30.2103   28.2475    5.4938 H         1 UNK         0.1417 
     83 H83        28.1868   24.5377    4.7750 H         1 UNK         0.1562 
     84 H84        28.0621   27.9187    6.4550 H         1 UNK         0.0748 
     85 H85        27.7461   26.2569    6.8875 H         1 UNK         0.0748 
     86 H86        27.5857   28.8032    4.1455 H         1 UNK         0.0940 
     87 H87        25.8891   28.9499    3.8066 H         1 UNK         0.0940 
     88 H88        27.8348   26.9975    2.4645 H         1 UNK         0.0703 
     89 H89        26.1435   25.8685    1.5951 H         1 UNK         0.3081 
     90 H90        22.8422   25.9258    1.8340 H         1 UNK         0.0719 
     91 H91        22.4378   27.6058    0.0363 H         1 UNK         0.0809 
     92 H92        23.7214   26.9037   -0.9396 H         1 UNK         0.0809 
     93 H93        22.2585   25.9799   -0.5975 H         1 UNK         0.0809 
     94 H94        24.4094   24.6560   -0.2270 H         1 UNK         0.2990 
     95 H95        25.9192   22.2155    1.7600 H         1 UNK         0.0690 
     96 H96        24.6570   20.5612    0.3907 H         1 UNK         0.0788 
     97 H97        23.4338   21.7766    0.0211 H         1 UNK         0.0788 
     98 H98        23.6573   21.2258    1.6725 H         1 UNK         0.0788 
     99 H99        27.0480   22.7229   -0.0388 H         1 UNK         0.2993 
    100 H100       26.8952   22.6411   -3.0463 H         1 UNK         0.0949 
    101 H101       26.2183   25.6229   -2.8272 H         1 UNK         0.0767 
    102 H102       27.2283   24.9208   -4.0895 H         1 UNK         0.0767 
    103 H103       25.5359   24.4715   -3.9654 H         1 UNK         0.0767 
    104 H104       28.8568   23.1588   -2.1595 H         1 UNK         0.3013 
    105 H105       27.3452   27.3290   -0.1191 H         1 UNK         0.3121 
    106 H106       27.2143   30.1337   -0.9173 H         1 UNK         0.0774 
    107 H107       27.8050   27.5800   -2.5022 H         1 UNK         0.0815 
    108 H108       26.2336   28.3598   -2.3381 H         1 UNK         0.0815 
    109 H109       27.5333   29.1693   -3.1998 H         1 UNK         0.0815 
    110 H110       29.7277   28.0496    0.1545 H         1 UNK         0.2987 
    111 H111       31.9573   29.2966   -1.2339 H         1 UNK         0.0949 
    112 H112       32.2566   27.0087   -0.5072 H         1 UNK         0.0806 
    113 H113       33.2840   27.9842    0.5231 H         1 UNK         0.0806 
    114 H114       31.7512   27.3765    1.1392 H         1 UNK         0.0806 
    115 H115       32.5004   31.3553   -0.8359 H         1 UNK         0.3010 
    116 H116       31.9252   32.7337    1.6783 H         1 UNK         0.0829 
    117 H117       33.3428   33.6372   -0.8882 H         1 UNK         0.0813 
    118 H118       32.9077   34.6779    0.4605 H         1 UNK         0.0813 
    119 H119       31.6471   33.9040   -0.4856 H         1 UNK         0.0813 
    120 H120       33.1837   31.1818    2.9906 H         1 UNK         0.3038 
    121 H121       35.9783   32.0690    3.3491 H         1 UNK         0.0769 
    122 H122       36.1389   29.9569    2.0037 H         1 UNK         0.0811 
    123 H123       35.0862   29.1274    3.1467 H         1 UNK         0.0811 
    124 H124       36.6826   29.6670    3.6483 H         1 UNK         0.0811 
    125 H125       36.7195   31.6278    5.5112 H         1 UNK         0.3204 
    126 H126       34.6509   31.9650    7.5375 H         1 UNK         0.0748 
    127 H127       37.7084   31.9044    7.7425 H         1 UNK         0.0771 
    128 H128       36.7116   33.3481    7.5597 H         1 UNK         0.0771 
    129 H129       36.5999   32.3837    9.0209 H         1 UNK         0.0771 
    130 H130       33.9480   29.6588    6.6868 H         1 UNK         0.2980 
    131 H131       35.2176   27.3468    7.7886 H         1 UNK         0.0545 
    132 H132       33.7562   26.7042   10.9702 H         1 UNK         0.3459 
    133 H133       34.6593   26.0324    9.6378 H         1 UNK         0.3459 
    134 H134       32.3286   27.7455    6.8695 H         1 UNK         0.0616 
    135 H135       33.0414   26.1932    7.2292 H         1 UNK         0.0616 
    136 H136       32.8450   27.7308    3.1422 H         1 UNK         0.0634 
    137 H137       32.3191   28.7149    4.4807 H         1 UNK         0.0634 
@<TRIPOS>BOND
     1    1    2 1    
     2    1   72 1    
     3    1   73 1    
     4    1   74 1    
     5    2    3 2    
     6    2    4 am   BACKBONE|DICT|INTERRES
     7    4    5 1    
     8    4   75 1    
     9    5    6 1    
    10    5   35 1    
    11    5   76 1    
    12    6    7 1    
    13    6   77 1    
    14    6   78 1    
    15    7    8 1    
    16    8    9 1    
    17    8   79 1    
    18    8   80 1    
    19    9   10 ar   
    20    9   14 ar   
    21   10   11 ar   
    22   10   81 1    
    23   11   12 ar   
    24   11   71 1    
    25   12   13 ar   
    26   12   82 1    
    27   13   14 ar   
    28   13   15 1    
    29   14   83 1    
    30   15   16 1    
    31   15   84 1    
    32   15   85 1    
    33   16   17 1    
    34   17   18 1    
    35   17   86 1    
    36   17   87 1    
    37   18   19 1    
    38   18   37 1    
    39   18   88 1    
    40   19   20 am   BACKBONE|DICT|INTERRES
    41   19   89 1    
    42   20   21 2    
    43   20   22 1    
    44   22   23 1    
    45   22   24 1    
    46   22   90 1    
    47   23   91 1    
    48   23   92 1    
    49   23   93 1    
    50   24   25 am   BACKBONE|DICT|INTERRES
    51   24   94 1    
    52   25   26 2    
    53   25   27 1    
    54   27   28 1    
    55   27   29 1    
    56   27   95 1    
    57   28   96 1    
    58   28   97 1    
    59   28   98 1    
    60   29   30 am   BACKBONE|DICT|INTERRES
    61   29   99 1    
    62   30   31 2    
    63   30   32 1    
    64   32   33 1    
    65   32   34 1    
    66   32  100 1    
    67   33  101 1    
    68   33  102 1    
    69   33  103 1    
    70   34   35 am   BACKBONE|DICT|INTERRES
    71   34  104 1    
    72   35   36 2    
    73   37   38 2    
    74   37   39 am   BACKBONE|DICT|INTERRES
    75   39   40 1    
    76   39  105 1    
    77   40   41 1    
    78   40   42 1    
    79   40  106 1    
    80   41  107 1    
    81   41  108 1    
    82   41  109 1    
    83   42   43 2    
    84   42   44 am   BACKBONE|DICT|INTERRES
    85   44   45 1    
    86   44  110 1    
    87   45   46 1    
    88   45   47 1    
    89   45  111 1    
    90   46  112 1    
    91   46  113 1    
    92   46  114 1    
    93   47   48 2    
    94   47   49 am   BACKBONE|DICT|INTERRES
    95   49   50 1    
    96   49  115 1    
    97   50   51 1    
    98   50   52 1    
    99   50  116 1    
   100   51  117 1    
   101   51  118 1    
   102   51  119 1    
   103   52   53 2    
   104   52   54 am   BACKBONE|DICT|INTERRES
   105   54   55 1    
   106   54  120 1    
   107   55   56 1    
   108   55   57 1    
   109   55  121 1    
   110   56  122 1    
   111   56  123 1    
   112   56  124 1    
   113   57   58 2    
   114   57   59 am   BACKBONE|DICT|INTERRES
   115   59   60 1    
   116   59  125 1    
   117   60   61 1    
   118   60   62 1    
   119   60  126 1    
   120   61  127 1    
   121   61  128 1    
   122   61  129 1    
   123   62   63 2    
   124   62   64 am   BACKBONE|DICT|INTERRES
   125   64   65 1    
   126   64  130 1    
   127   65   66 1    
   128   65   69 1    
   129   65  131 1    
   130   66   67 am   BACKBONE|DICT|INTERRES
   131   66   68 2    
   132   67  132 1    
   133   67  133 1    
   134   69   70 1    
   135   69  134 1    
   136   69  135 1    
   137   70   71 1    
   138   71  136 1    
   139   71  137 1    
@<TRIPOS>SUBSTRUCTURE
     1 UNK         1 GROUP             0       ****    0 ROOT    
