@<TRIPOS>MOLECULE
3R136
137   139    1
SMALL
USER_CHARGES


@<TRIPOS>ATOM
      1 CA         31.8694   24.8093   -0.7827 C.3       0 UNK        -0.1979 
      2 C          30.5167   24.5517   -0.1392 C.2       0 UNK         0.4864 
      3 O          29.7343   25.4879    0.0295 O.2       0 UNK        -0.5359 
      4 N          30.2294   23.2886    0.2061 N.am      1 UNK        -0.4318 
      5 CA         29.0214   22.8304    0.9079 C.3       1 UNK         0.0824 
      6 C6         28.9919   21.2892    1.1153 C.3       12 UNK        -0.0944 
      7 S7         30.5982   20.5476    1.5672 S.3       12 UNK        -0.2672 
      8 C8         30.4789   20.4447    3.3782 C.3       12 UNK         0.0333 
      9 C9         30.6251   21.8095    4.0330 C.ar      12 UNK        -0.0807 
     10 C10        31.8372   22.5007    3.9451 C.ar      12 UNK        -0.0894 
     11 C11        31.9946   23.7419    4.5665 C.ar      12 UNK        -0.0804 
     12 C12        30.9314   24.2876    5.2911 C.ar      12 UNK        -0.0824 
     13 C13        29.7127   23.6058    5.3851 C.ar      12 UNK        -0.0762 
     14 C14        29.5637   22.3696    4.7494 C.ar      12 UNK        -0.0782 
     15 C15        28.5622   24.1849    6.1958 C.3       12 UNK         0.0230 
     16 S16        27.3850   25.0985    5.1507 S.3       12 UNK        -0.2608 
     17 C17        28.3671   26.5702    4.7090 C.3       12 UNK        -0.0989 
     18 CA         28.7667   26.5752    3.2068 C.3       5 UNK         0.0716 
     19 N          27.6069   26.6524    2.3044 N.am      5 UNK        -0.4135 
     20 C          26.7616   27.6904    2.1961 C.2       4 UNK         0.5031 
     21 O          26.8252   28.7111    2.8840 O.2       4 UNK        -0.5229 
     22 CA         25.6685   27.5639    1.1191 C.3       4 UNK         0.0329 
     23 CB         24.8169   28.8422    0.9666 C.3       4 UNK        -0.2001 
     24 N          26.2043   27.1455   -0.1797 N.am      4 UNK        -0.4303 
     25 C          27.1466   27.7491   -0.9222 C.2       3 UNK         0.5044 
     26 O          27.7067   28.7986   -0.6043 O.2       3 UNK        -0.5152 
     27 CA         27.5434   27.0452   -2.2353 C.3       3 UNK         0.0319 
     28 CB         28.9445   27.4603   -2.7238 C.3       3 UNK        -0.2001 
     29 N          27.4995   25.5883   -2.0894 N.am      3 UNK        -0.4354 
     30 C          26.4285   24.8181   -2.3287 C.2       2 UNK         0.4964 
     31 O          25.3656   25.2549   -2.7697 O.2       2 UNK        -0.5047 
     32 CA         26.5305   23.3207   -1.9885 C.3       2 UNK         0.0288 
     33 CB         26.6503   22.4851   -3.2738 C.3       2 UNK        -0.2113 
     34 N          27.6436   22.9836   -1.0983 N.am      2 UNK        -0.4145 
     35 C          27.7272   23.2902    0.2056 C.2       1 UNK         0.5006 
     36 O          26.8820   23.9413    0.8237 O.2       1 UNK        -0.5103 
     37 C          29.8085   27.6671    2.8701 C.2       5 UNK         0.5055 
     38 O          30.3246   28.3250    3.7771 O.2       5 UNK        -0.5220 
     39 N          30.0681   27.8322    1.5627 N.am      6 UNK        -0.4450 
     40 CA         30.8957   28.8521    0.9158 C.3       6 UNK         0.0367 
     41 CB         32.3849   28.5862    1.1928 C.3       6 UNK        -0.1929 
     42 C          30.4650   30.2769    1.3055 C.2       6 UNK         0.5070 
     43 O          31.1409   30.9196    2.1088 O.2       6 UNK        -0.5237 
     44 N          29.3307   30.7184    0.7408 N.am      7 UNK        -0.4739 
     45 CA         28.6573   32.0019    0.9830 C.3       7 UNK         0.0276 
     46 CB         27.5998   32.2217   -0.1112 C.3       7 UNK        -0.1927 
     47 C          29.6101   33.2233    1.0402 C.2       7 UNK         0.5013 
     48 O          30.4550   33.3486    0.1522 O.2       7 UNK        -0.5193 
     49 N          29.4869   34.1446    2.0103 N.am      8 UNK        -0.4253 
     50 CA         28.4900   34.2056    3.0848 C.3       8 UNK         0.0242 
     51 CB         28.5200   35.6046    3.7215 C.3       8 UNK        -0.2000 
     52 C          28.6490   33.1260    4.1705 C.2       8 UNK         0.4948 
     53 O          27.6298   32.6628    4.6824 O.2       8 UNK        -0.5275 
     54 N          29.8886   32.7217    4.4732 N.am      9 UNK        -0.4246 
     55 CA         30.2276   31.6387    5.3972 C.3       9 UNK         0.0261 
     56 CB         29.8082   31.9850    6.8443 C.3       9 UNK        -0.1959 
     57 C          31.7383   31.3736    5.3552 C.2       9 UNK         0.5033 
     58 O          32.5069   32.3055    5.1009 O.2       9 UNK        -0.5390 
     59 N          32.1044   30.1319    5.7048 N.am      10 UNK        -0.4215 
     60 CA         33.4451   29.5692    5.9043 C.3       10 UNK         0.0240 
     61 CB         34.2908   30.4058    6.8863 C.3       10 UNK        -0.1982 
     62 C          34.1950   29.3052    4.5887 C.2       10 UNK         0.4970 
     63 O          34.4377   30.2264    3.8083 O.2       10 UNK        -0.4916 
     64 N          34.5832   28.0390    4.3930 N.am      11 UNK        -0.4279 
     65 CA         35.3277   27.5528    3.2190 C.3       11 UNK         0.1003 
     66 C          36.8285   27.9671    3.1798 C.2       11 UNK         0.5709 
     67 N          37.4013   28.5099    4.2479 N.am      11 UNK        -0.7358 
     68 O          37.4851   27.7965    2.1552 O.2       11 UNK        -0.4999 
     69 C69        35.1734   26.0188    3.0338 C.3       12 UNK        -0.0954 
     70 S70        33.4363   25.4575    2.9490 S.3       12 UNK        -0.2268 
     71 C71        33.3237   24.4737    4.4741 C.3       12 UNK         0.0203 
     72 H72        32.5063   25.3675   -0.0979 H         1 UNK         0.0888 
     73 H73        32.3795   23.8820   -1.0421 H         1 UNK         0.0888 
     74 H74        31.7476   25.3962   -1.6925 H         1 UNK         0.0888 
     75 H75        30.9218   22.5676    0.0563 H         1 UNK         0.3017 
     76 H76        29.0420   23.3021    1.8925 H         1 UNK         0.0873 
     77 H77        28.2467   21.0271    1.8688 H         1 UNK         0.0745 
     78 H78        28.6778   20.7787    0.2027 H         1 UNK         0.0745 
     79 H79        31.2730   19.7922    3.7440 H         1 UNK         0.0705 
     80 H80        29.5388   19.9665    3.6577 H         1 UNK         0.0705 
     81 H81        32.6599   22.0702    3.3903 H         1 UNK         0.1334 
     82 H82        31.0587   25.2397    5.7869 H         1 UNK         0.1417 
     83 H83        28.6236   21.8398    4.8249 H         1 UNK         0.1562 
     84 H84        28.9363   24.8366    6.9870 H         1 UNK         0.0748 
     85 H85        28.0281   23.3782    6.7003 H         1 UNK         0.0748 
     86 H86        29.2487   26.6125    5.3483 H         1 UNK         0.0940 
     87 H87        27.7906   27.4608    4.9625 H         1 UNK         0.0940 
     88 H88        29.2616   25.6269    2.9902 H         1 UNK         0.0703 
     89 H89        27.4664   25.8528    1.6972 H         1 UNK         0.3081 
     90 H90        25.0055   26.7634    1.4512 H         1 UNK         0.0719 
     91 H91        25.4234   29.6980    0.6712 H         1 UNK         0.0809 
     92 H92        24.0340   28.7116    0.2197 H         1 UNK         0.0809 
     93 H93        24.3281   29.1002    1.9068 H         1 UNK         0.0809 
     94 H94        25.8296   26.2790   -0.5401 H         1 UNK         0.2990 
     95 H95        26.8234   27.3593   -2.9936 H         1 UNK         0.0690 
     96 H96        29.2089   26.9492   -3.6496 H         1 UNK         0.0788 
     97 H97        29.7142   27.2362   -1.9854 H         1 UNK         0.0788 
     98 H98        28.9882   28.5316   -2.9241 H         1 UNK         0.0788 
     99 H99        28.3058   25.1723   -1.6404 H         1 UNK         0.2993 
    100 H100       25.6022   23.0434   -1.4837 H         1 UNK         0.0949 
    101 H101       27.5689   22.7097   -3.8176 H         1 UNK         0.0767 
    102 H102       26.6402   21.4169   -3.0557 H         1 UNK         0.0767 
    103 H103       25.8158   22.6829   -3.9484 H         1 UNK         0.0767 
    104 H104       28.4122   22.4775   -1.5147 H         1 UNK         0.3013 
    105 H105       29.6413   27.1643    0.9247 H         1 UNK         0.3121 
    106 H106       30.7369   28.7504   -0.1589 H         1 UNK         0.0774 
    107 H107       33.0145   29.3433    0.7242 H         1 UNK         0.0815 
    108 H108       32.5923   28.6047    2.2615 H         1 UNK         0.0815 
    109 H109       32.6945   27.6161    0.8070 H         1 UNK         0.0815 
    110 H110       28.8205   30.0656    0.1473 H         1 UNK         0.2987 
    111 H111       28.1266   31.8663    1.9208 H         1 UNK         0.0949 
    112 H112       28.0538   32.2816   -1.1012 H         1 UNK         0.0806 
    113 H113       26.8692   31.4138   -0.1286 H         1 UNK         0.0806 
    114 H114       27.0508   33.1496    0.0545 H         1 UNK         0.0806 
    115 H115       30.1404   34.9137    1.9921 H         1 UNK         0.3010 
    116 H116       27.5051   34.0734    2.6316 H         1 UNK         0.0829 
    117 H117       28.3080   36.3814    2.9864 H         1 UNK         0.0813 
    118 H118       27.7677   35.6922    4.5070 H         1 UNK         0.0813 
    119 H119       29.4884   35.8236    4.1734 H         1 UNK         0.0813 
    120 H120       30.6850   33.1168    3.9875 H         1 UNK         0.3038 
    121 H121       29.7048   30.7383    5.0667 H         1 UNK         0.0769 
    122 H122       30.1392   31.2176    7.5452 H         1 UNK         0.0811 
    123 H123       28.7267   32.0593    6.9515 H         1 UNK         0.0811 
    124 H124       30.2431   32.9308    7.1696 H         1 UNK         0.0811 
    125 H125       31.3564   29.4555    5.7873 H         1 UNK         0.3204 
    126 H126       33.2691   28.6059    6.3861 H         1 UNK         0.0748 
    127 H127       35.2212   29.8926    7.1318 H         1 UNK         0.0771 
    128 H128       34.5607   31.3762    6.4687 H         1 UNK         0.0771 
    129 H129       33.7589   30.5789    7.8219 H         1 UNK         0.0771 
    130 H130       34.3635   27.3430    5.0886 H         1 UNK         0.2980 
    131 H131       34.8861   28.0248    2.3411 H         1 UNK         0.0545 
    132 H132       38.3724   28.7761    4.2047 H         1 UNK         0.3459 
    133 H133       36.8734   28.6597    5.0919 H         1 UNK         0.3459 
    134 H134       35.6913   25.4889    3.8352 H         1 UNK         0.0616 
    135 H135       35.6549   25.7017    2.1069 H         1 UNK         0.0616 
    136 H136       34.1400   23.7500    4.4998 H         1 UNK         0.0634 
    137 H137       33.4604   25.1263    5.3374 H         1 UNK         0.0634 
@<TRIPOS>BOND
     1    1    2 1    
     2    1   72 1    
     3    1   73 1    
     4    1   74 1    
     5    2    3 2    
     6    2    4 am   BACKBONE|DICT|INTERRES
     7    4    5 1    
     8    4   75 1    
     9    5    6 1    
    10    5   35 1    
    11    5   76 1    
    12    6    7 1    
    13    6   77 1    
    14    6   78 1    
    15    7    8 1    
    16    8    9 1    
    17    8   79 1    
    18    8   80 1    
    19    9   10 ar   
    20    9   14 ar   
    21   10   11 ar   
    22   10   81 1    
    23   11   12 ar   
    24   11   71 1    
    25   12   13 ar   
    26   12   82 1    
    27   13   14 ar   
    28   13   15 1    
    29   14   83 1    
    30   15   16 1    
    31   15   84 1    
    32   15   85 1    
    33   16   17 1    
    34   17   18 1    
    35   17   86 1    
    36   17   87 1    
    37   18   19 1    
    38   18   37 1    
    39   18   88 1    
    40   19   20 am   BACKBONE|DICT|INTERRES
    41   19   89 1    
    42   20   21 2    
    43   20   22 1    
    44   22   23 1    
    45   22   24 1    
    46   22   90 1    
    47   23   91 1    
    48   23   92 1    
    49   23   93 1    
    50   24   25 am   BACKBONE|DICT|INTERRES
    51   24   94 1    
    52   25   26 2    
    53   25   27 1    
    54   27   28 1    
    55   27   29 1    
    56   27   95 1    
    57   28   96 1    
    58   28   97 1    
    59   28   98 1    
    60   29   30 am   BACKBONE|DICT|INTERRES
    61   29   99 1    
    62   30   31 2    
    63   30   32 1    
    64   32   33 1    
    65   32   34 1    
    66   32  100 1    
    67   33  101 1    
    68   33  102 1    
    69   33  103 1    
    70   34   35 am   BACKBONE|DICT|INTERRES
    71   34  104 1    
    72   35   36 2    
    73   37   38 2    
    74   37   39 am   BACKBONE|DICT|INTERRES
    75   39   40 1    
    76   39  105 1    
    77   40   41 1    
    78   40   42 1    
    79   40  106 1    
    80   41  107 1    
    81   41  108 1    
    82   41  109 1    
    83   42   43 2    
    84   42   44 am   BACKBONE|DICT|INTERRES
    85   44   45 1    
    86   44  110 1    
    87   45   46 1    
    88   45   47 1    
    89   45  111 1    
    90   46  112 1    
    91   46  113 1    
    92   46  114 1    
    93   47   48 2    
    94   47   49 am   BACKBONE|DICT|INTERRES
    95   49   50 1    
    96   49  115 1    
    97   50   51 1    
    98   50   52 1    
    99   50  116 1    
   100   51  117 1    
   101   51  118 1    
   102   51  119 1    
   103   52   53 2    
   104   52   54 am   BACKBONE|DICT|INTERRES
   105   54   55 1    
   106   54  120 1    
   107   55   56 1    
   108   55   57 1    
   109   55  121 1    
   110   56  122 1    
   111   56  123 1    
   112   56  124 1    
   113   57   58 2    
   114   57   59 am   BACKBONE|DICT|INTERRES
   115   59   60 1    
   116   59  125 1    
   117   60   61 1    
   118   60   62 1    
   119   60  126 1    
   120   61  127 1    
   121   61  128 1    
   122   61  129 1    
   123   62   63 2    
   124   62   64 am   BACKBONE|DICT|INTERRES
   125   64   65 1    
   126   64  130 1    
   127   65   66 1    
   128   65   69 1    
   129   65  131 1    
   130   66   67 am   BACKBONE|DICT|INTERRES
   131   66   68 2    
   132   67  132 1    
   133   67  133 1    
   134   69   70 1    
   135   69  134 1    
   136   69  135 1    
   137   70   71 1    
   138   71  136 1    
   139   71  137 1    
@<TRIPOS>SUBSTRUCTURE
     1 UNK         1 GROUP             0       ****    0 ROOT    
