@<TRIPOS>MOLECULE
3R136
137   139    1
SMALL
USER_CHARGES


@<TRIPOS>ATOM
      1 CA         34.4268   25.2211    1.2944 C.3       0 UNK        -0.1979 
      2 C          32.9588   25.6166    1.3490 C.2       0 UNK         0.4864 
      3 O          32.6470   26.7357    1.7544 O.2       0 UNK        -0.5359 
      4 N          32.0633   24.7035    0.9449 N.am      1 UNK        -0.4318 
      5 CA         30.6015   24.8534    0.9960 C.3       1 UNK         0.0824 
      6 C6         29.8597   23.5645    0.5517 C.3       12 UNK        -0.0944 
      7 S7         30.4684   22.0444    1.3559 S.3       12 UNK        -0.2672 
      8 C8         29.1532   21.7137    2.5743 C.3       12 UNK         0.0333 
      9 C9         29.0738   22.7652    3.6759 C.ar      12 UNK        -0.0807 
     10 C10        30.2287   23.1861    4.3443 C.ar      12 UNK        -0.0894 
     11 C11        30.1567   24.1354    5.3664 C.ar      12 UNK        -0.0804 
     12 C12        28.9105   24.6420    5.7448 C.ar      12 UNK        -0.0824 
     13 C13        27.7452   24.2207    5.0952 C.ar      12 UNK        -0.0762 
     14 C14        27.8338   23.2899    4.0553 C.ar      12 UNK        -0.0782 
     15 C15        26.3906   24.7424    5.5515 C.3       12 UNK         0.0230 
     16 S16        25.9933   26.3572    4.8143 S.3       12 UNK        -0.2608 
     17 C17        25.2401   25.9050    3.2087 C.3       12 UNK        -0.0989 
     18 CA         26.0429   26.4436    1.9928 C.3       5 UNK         0.0716 
     19 N          25.6372   25.8274    0.7266 N.am      5 UNK        -0.4135 
     20 C          24.4527   25.9339    0.1102 C.2       4 UNK         0.5031 
     21 O          23.5149   26.6128    0.5317 O.2       4 UNK        -0.5229 
     22 CA         24.2803   25.1198   -1.1908 C.3       4 UNK         0.0329 
     23 CB         22.8658   25.2490   -1.7884 C.3       4 UNK        -0.2001 
     24 N          25.2579   25.4594   -2.2295 N.am      4 UNK        -0.4303 
     25 C          26.5474   25.0997   -2.2384 C.2       3 UNK         0.5044 
     26 O          27.0820   24.4804   -1.3153 O.2       3 UNK        -0.5152 
     27 CA         27.3821   25.4460   -3.4869 C.3       3 UNK         0.0319 
     28 CB         26.6710   26.3551   -4.5176 C.3       3 UNK        -0.2001 
     29 N          28.6952   25.9719   -3.1021 N.am      3 UNK        -0.4354 
     30 C          28.9530   27.1428   -2.5010 C.2       2 UNK         0.4964 
     31 O          28.1152   28.0236   -2.3049 O.2       2 UNK        -0.5047 
     32 CA         30.3983   27.3090   -1.9936 C.3       2 UNK         0.0288 
     33 CB         30.7177   28.7210   -1.4631 C.3       2 UNK        -0.2113 
     34 N          30.7325   26.2960   -0.9853 N.am      2 UNK        -0.4145 
     35 C          30.0808   26.0431    0.1645 C.2       1 UNK         0.5006 
     36 O          29.1057   26.6777    0.5704 O.2       1 UNK        -0.5103 
     37 C          26.0515   27.9862    1.8958 C.2       5 UNK         0.5055 
     38 O          25.1559   28.6542    2.4178 O.2       5 UNK        -0.5220 
     39 N          27.0987   28.5240    1.2635 N.am      6 UNK        -0.4450 
     40 CA         27.5026   29.9265    1.3739 C.3       6 UNK         0.0367 
     41 CB         27.5496   30.5789   -0.0185 C.3       6 UNK        -0.1929 
     42 C          28.8491   29.9548    2.1133 C.2       6 UNK         0.5070 
     43 O          29.8241   30.5294    1.6270 O.2       6 UNK        -0.5237 
     44 N          28.8686   29.2952    3.2824 N.am      7 UNK        -0.4739 
     45 CA         30.0418   28.9688    4.0995 C.3       7 UNK         0.0276 
     46 CB         29.5706   28.2498    5.3711 C.3       7 UNK        -0.1927 
     47 C          30.9406   30.1568    4.4680 C.2       7 UNK         0.5013 
     48 O          32.1439   29.9643    4.6356 O.2       7 UNK        -0.5193 
     49 N          30.3705   31.3684    4.5344 N.am      8 UNK        -0.4253 
     50 CA         31.0817   32.6358    4.7419 C.3       8 UNK         0.0242 
     51 CB         30.0628   33.7869    4.7479 C.3       8 UNK        -0.2000 
     52 C          32.2042   32.9147    3.7198 C.2       8 UNK         0.4948 
     53 O          33.1075   33.6951    4.0229 O.2       8 UNK        -0.5275 
     54 N          32.1503   32.2600    2.5503 N.am      9 UNK        -0.4246 
     55 CA         33.2098   32.2565    1.5442 C.3       9 UNK         0.0261 
     56 CB         32.6541   31.6571    0.2419 C.3       9 UNK        -0.1959 
     57 C          34.4863   31.5022    1.9709 C.2       9 UNK         0.5033 
     58 O          35.5390   31.7784    1.3919 O.2       9 UNK        -0.5390 
     59 N          34.3999   30.5692    2.9338 N.am      10 UNK        -0.4215 
     60 CA         35.5258   29.7368    3.3612 C.3       10 UNK         0.0240 
     61 CB         35.8015   28.6197    2.3320 C.3       10 UNK        -0.1982 
     62 C          35.3286   29.1929    4.7836 C.2       10 UNK         0.4970 
     63 O          35.9066   29.7466    5.7196 O.2       10 UNK        -0.4916 
     64 N          34.5767   28.0914    4.9148 N.am      11 UNK        -0.4279 
     65 CA         34.4469   27.2980    6.1505 C.3       11 UNK         0.1003 
     66 C          33.6832   27.9563    7.3367 C.2       11 UNK         0.5709 
     67 N          32.9538   29.0453    7.1440 N.am      11 UNK        -0.7358 
     68 O          33.7744   27.4748    8.4638 O.2       11 UNK        -0.4999 
     69 C69        33.9512   25.8577    5.8540 C.3       12 UNK        -0.0954 
     70 S70        32.3294   25.7891    5.0201 S.3       12 UNK        -0.2268 
     71 C71        31.4303   24.5983    6.0574 C.3       12 UNK         0.0203 
     72 H72        34.9692   25.8826    0.6194 H         1 UNK         0.0888 
     73 H73        34.8718   25.3044    2.2857 H         1 UNK         0.0888 
     74 H74        34.5614   24.1965    0.9481 H         1 UNK         0.0888 
     75 H75        32.3854   23.7934    0.6469 H         1 UNK         0.3017 
     76 H76        30.3428   25.0561    2.0378 H         1 UNK         0.0873 
     77 H77        29.9584   23.4162   -0.5257 H         1 UNK         0.0745 
     78 H78        28.7886   23.6637    0.7395 H         1 UNK         0.0745 
     79 H79        28.2012   21.6242    2.0487 H         1 UNK         0.0705 
     80 H80        29.3425   20.7437    3.0356 H         1 UNK         0.0705 
     81 H81        31.1917   22.7840    4.0603 H         1 UNK         0.1334 
     82 H82        28.8453   25.3637    6.5477 H         1 UNK         0.1417 
     83 H83        26.9334   22.9581    3.5564 H         1 UNK         0.1562 
     84 H84        26.3969   24.8530    6.6369 H         1 UNK         0.0748 
     85 H85        25.6000   24.0230    5.3326 H         1 UNK         0.0748 
     86 H86        24.2123   26.2723    3.1906 H         1 UNK         0.0940 
     87 H87        25.1644   24.8191    3.1437 H         1 UNK         0.0940 
     88 H88        27.0771   26.1301    2.1439 H         1 UNK         0.0703 
     89 H89        26.3522   25.2891    0.2428 H         1 UNK         0.3081 
     90 H90        24.4233   24.0707   -0.9221 H         1 UNK         0.0719 
     91 H91        22.1057   24.9534   -1.0637 H         1 UNK         0.0809 
     92 H92        22.6470   26.2739   -2.0909 H         1 UNK         0.0809 
     93 H93        22.7421   24.6070   -2.6608 H         1 UNK         0.0809 
     94 H94        24.9120   25.9979   -3.0103 H         1 UNK         0.2990 
     95 H95        27.5779   24.4935   -3.9814 H         1 UNK         0.0690 
     96 H96        27.3289   26.5815   -5.3568 H         1 UNK         0.0788 
     97 H97        26.3512   27.3044   -4.0866 H         1 UNK         0.0788 
     98 H98        25.7889   25.8660   -4.9327 H         1 UNK         0.0788 
     99 H99        29.4538   25.3085   -3.1733 H         1 UNK         0.2993 
    100 H100       31.0466   27.1333   -2.8537 H         1 UNK         0.0949 
    101 H101       30.2092   28.9236   -0.5220 H         1 UNK         0.0767 
    102 H102       31.7868   28.8374   -1.2869 H         1 UNK         0.0767 
    103 H103       30.4193   29.4916   -2.1749 H         1 UNK         0.0767 
    104 H104       31.5226   25.7056   -1.2033 H         1 UNK         0.3013 
    105 H105       27.8103   27.8930    0.8889 H         1 UNK         0.3121 
    106 H106       26.7959   30.4935    1.9832 H         1 UNK         0.0774 
    107 H107       28.2669   30.0901   -0.6741 H         1 UNK         0.0815 
    108 H108       26.5754   30.5380   -0.5053 H         1 UNK         0.0815 
    109 H109       27.8362   31.6287    0.0525 H         1 UNK         0.0815 
    110 H110       28.0006   28.8784    3.5871 H         1 UNK         0.2987 
    111 H111       30.6541   28.2751    3.5177 H         1 UNK         0.0949 
    112 H112       29.0151   27.3470    5.1224 H         1 UNK         0.0806 
    113 H113       30.4165   27.9494    5.9908 H         1 UNK         0.0806 
    114 H114       28.9266   28.8838    5.9815 H         1 UNK         0.0806 
    115 H115       29.3776   31.4267    4.3623 H         1 UNK         0.3010 
    116 H116       31.5521   32.5851    5.7260 H         1 UNK         0.0829 
    117 H117       29.5384   33.8653    3.7945 H         1 UNK         0.0813 
    118 H118       30.5551   34.7436    4.9285 H         1 UNK         0.0813 
    119 H119       29.3181   33.6557    5.5332 H         1 UNK         0.0813 
    120 H120       31.3555   31.6530    2.3670 H         1 UNK         0.3038 
    121 H121       33.4917   33.2936    1.3503 H         1 UNK         0.0769 
    122 H122       31.7855   32.2115   -0.1141 H         1 UNK         0.0811 
    123 H123       32.3526   30.6178    0.3793 H         1 UNK         0.0811 
    124 H124       33.4020   31.6788   -0.5518 H         1 UNK         0.0811 
    125 H125       33.5188   30.4187    3.4233 H         1 UNK         0.3204 
    126 H126       36.4175   30.3663    3.4068 H         1 UNK         0.0748 
    127 H127       34.9000   28.0553    2.0999 H         1 UNK         0.0771 
    128 H128       36.1802   29.0300    1.3958 H         1 UNK         0.0771 
    129 H129       36.5503   27.9164    2.6990 H         1 UNK         0.0771 
    130 H130       34.0788   27.7344    4.1114 H         1 UNK         0.2980 
    131 H131       35.4657   27.1849    6.5264 H         1 UNK         0.0545 
    132 H132       32.8298   29.4181    6.2056 H         1 UNK         0.3459 
    133 H133       32.4799   29.4677    7.9248 H         1 UNK         0.3459 
    134 H134       33.9232   25.2671    6.7715 H         1 UNK         0.0616 
    135 H135       34.6702   25.3535    5.2068 H         1 UNK         0.0616 
    136 H136       32.0665   23.7349    6.2582 H         1 UNK         0.0634 
    137 H137       31.2080   25.0568    7.0222 H         1 UNK         0.0634 
@<TRIPOS>BOND
     1    1    2 1    
     2    1   72 1    
     3    1   73 1    
     4    1   74 1    
     5    2    3 2    
     6    2    4 am   BACKBONE|DICT|INTERRES
     7    4    5 1    
     8    4   75 1    
     9    5    6 1    
    10    5   35 1    
    11    5   76 1    
    12    6    7 1    
    13    6   77 1    
    14    6   78 1    
    15    7    8 1    
    16    8    9 1    
    17    8   79 1    
    18    8   80 1    
    19    9   10 ar   
    20    9   14 ar   
    21   10   11 ar   
    22   10   81 1    
    23   11   12 ar   
    24   11   71 1    
    25   12   13 ar   
    26   12   82 1    
    27   13   14 ar   
    28   13   15 1    
    29   14   83 1    
    30   15   16 1    
    31   15   84 1    
    32   15   85 1    
    33   16   17 1    
    34   17   18 1    
    35   17   86 1    
    36   17   87 1    
    37   18   19 1    
    38   18   37 1    
    39   18   88 1    
    40   19   20 am   BACKBONE|DICT|INTERRES
    41   19   89 1    
    42   20   21 2    
    43   20   22 1    
    44   22   23 1    
    45   22   24 1    
    46   22   90 1    
    47   23   91 1    
    48   23   92 1    
    49   23   93 1    
    50   24   25 am   BACKBONE|DICT|INTERRES
    51   24   94 1    
    52   25   26 2    
    53   25   27 1    
    54   27   28 1    
    55   27   29 1    
    56   27   95 1    
    57   28   96 1    
    58   28   97 1    
    59   28   98 1    
    60   29   30 am   BACKBONE|DICT|INTERRES
    61   29   99 1    
    62   30   31 2    
    63   30   32 1    
    64   32   33 1    
    65   32   34 1    
    66   32  100 1    
    67   33  101 1    
    68   33  102 1    
    69   33  103 1    
    70   34   35 am   BACKBONE|DICT|INTERRES
    71   34  104 1    
    72   35   36 2    
    73   37   38 2    
    74   37   39 am   BACKBONE|DICT|INTERRES
    75   39   40 1    
    76   39  105 1    
    77   40   41 1    
    78   40   42 1    
    79   40  106 1    
    80   41  107 1    
    81   41  108 1    
    82   41  109 1    
    83   42   43 2    
    84   42   44 am   BACKBONE|DICT|INTERRES
    85   44   45 1    
    86   44  110 1    
    87   45   46 1    
    88   45   47 1    
    89   45  111 1    
    90   46  112 1    
    91   46  113 1    
    92   46  114 1    
    93   47   48 2    
    94   47   49 am   BACKBONE|DICT|INTERRES
    95   49   50 1    
    96   49  115 1    
    97   50   51 1    
    98   50   52 1    
    99   50  116 1    
   100   51  117 1    
   101   51  118 1    
   102   51  119 1    
   103   52   53 2    
   104   52   54 am   BACKBONE|DICT|INTERRES
   105   54   55 1    
   106   54  120 1    
   107   55   56 1    
   108   55   57 1    
   109   55  121 1    
   110   56  122 1    
   111   56  123 1    
   112   56  124 1    
   113   57   58 2    
   114   57   59 am   BACKBONE|DICT|INTERRES
   115   59   60 1    
   116   59  125 1    
   117   60   61 1    
   118   60   62 1    
   119   60  126 1    
   120   61  127 1    
   121   61  128 1    
   122   61  129 1    
   123   62   63 2    
   124   62   64 am   BACKBONE|DICT|INTERRES
   125   64   65 1    
   126   64  130 1    
   127   65   66 1    
   128   65   69 1    
   129   65  131 1    
   130   66   67 am   BACKBONE|DICT|INTERRES
   131   66   68 2    
   132   67  132 1    
   133   67  133 1    
   134   69   70 1    
   135   69  134 1    
   136   69  135 1    
   137   70   71 1    
   138   71  136 1    
   139   71  137 1    
@<TRIPOS>SUBSTRUCTURE
     1 UNK         1 GROUP             0       ****    0 ROOT    
