@<TRIPOS>MOLECULE
3R136
137   139    1
SMALL
USER_CHARGES


@<TRIPOS>ATOM
      1 CA         27.8464   21.4867    2.4369 C.3       0 UNK        -0.1979 
      2 C          29.0170   21.6958    1.4877 C.2       0 UNK         0.4864 
      3 O          29.1252   20.9934    0.4821 O.2       0 UNK        -0.5359 
      4 N          29.8887   22.6658    1.7954 N.am      1 UNK        -0.4318 
      5 CA         31.0383   23.0623    0.9695 C.3       1 UNK         0.0824 
      6 C6         32.0536   23.8909    1.7903 C.3       12 UNK        -0.0944 
      7 S7         32.9907   22.8928    3.0026 S.3       12 UNK        -0.2672 
      8 C8         31.8616   22.6952    4.4303 C.3       12 UNK         0.0333 
      9 C9         31.1702   23.9801    4.8755 C.ar      12 UNK        -0.0807 
     10 C10        31.8897   25.1715    5.0099 C.ar      12 UNK        -0.0894 
     11 C11        31.2439   26.3568    5.3695 C.ar      12 UNK        -0.0804 
     12 C12        29.8753   26.3361    5.6526 C.ar      12 UNK        -0.0824 
     13 C13        29.1460   25.1470    5.5458 C.ar      12 UNK        -0.0762 
     14 C14        29.8001   23.9732    5.1590 C.ar      12 UNK        -0.0782 
     15 C15        27.6562   25.1202    5.8639 C.3       12 UNK         0.0230 
     16 S16        26.6214   25.1602    4.3625 S.3       12 UNK        -0.2608 
     17 C17        26.8007   26.8961    3.8312 C.3       12 UNK        -0.0989 
     18 CA         27.0560   27.0070    2.3057 C.3       5 UNK         0.0716 
     19 N          25.8913   26.6428    1.4789 N.am      5 UNK        -0.4135 
     20 C          24.6888   27.2389    1.4198 C.2       4 UNK         0.5031 
     21 O          24.3848   28.2190    2.1027 O.2       4 UNK        -0.5229 
     22 CA         23.6724   26.6888    0.4023 C.3       4 UNK         0.0329 
     23 CB         22.7098   27.7744   -0.1168 C.3       4 UNK        -0.2001 
     24 N          24.3521   26.0642   -0.7338 N.am      4 UNK        -0.4303 
     25 C          24.0574   24.8613   -1.2402 C.2       3 UNK         0.5044 
     26 O          23.1029   24.1747   -0.8729 O.2       3 UNK        -0.5152 
     27 CA         24.9993   24.3114   -2.3301 C.3       3 UNK         0.0319 
     28 CB         24.4478   24.6453   -3.7260 C.3       3 UNK        -0.2001 
     29 N          26.4040   24.7451   -2.2508 N.am      3 UNK        -0.4354 
     30 C          27.2004   24.6480   -1.1769 C.2       2 UNK         0.4964 
     31 O          26.8090   24.3198   -0.0519 O.2       2 UNK        -0.5047 
     32 CA         28.6779   25.0061   -1.3780 C.3       2 UNK         0.0288 
     33 CB         28.8935   26.5289   -1.4087 C.3       2 UNK        -0.2113 
     34 N          29.4048   24.4266   -0.2565 N.am      2 UNK        -0.4145 
     35 C          30.6024   23.8340   -0.2975 C.2       1 UNK         0.5006 
     36 O          31.3438   23.8586   -1.2812 O.2       1 UNK        -0.5103 
     37 C          27.6853   28.3734    1.9537 C.2       5 UNK         0.5055 
     38 O          28.9099   28.4661    1.9102 O.2       5 UNK        -0.5220 
     39 N          26.8667   29.4096    1.7321 N.am      6 UNK        -0.4450 
     40 CA         27.1980   30.8015    1.3867 C.3       6 UNK         0.0367 
     41 CB         28.0137   30.8773    0.0798 C.3       6 UNK        -0.1929 
     42 C          27.8773   31.6164    2.5062 C.2       6 UNK         0.5070 
     43 O          27.7504   32.8408    2.4997 O.2       6 UNK        -0.5237 
     44 N          28.5700   30.9453    3.4387 N.am      7 UNK        -0.4739 
     45 CA         29.3093   31.4981    4.5840 C.3       7 UNK         0.0276 
     46 CB         28.3609   32.2150    5.5686 C.3       7 UNK        -0.1927 
     47 C          30.5126   32.3698    4.1692 C.2       7 UNK         0.5013 
     48 O          30.9188   33.2614    4.9180 O.2       7 UNK        -0.5193 
     49 N          31.0785   32.0898    2.9876 N.am      8 UNK        -0.4253 
     50 CA         32.2136   32.7941    2.3915 C.3       8 UNK         0.0242 
     51 CB         32.1720   32.5905    0.8650 C.3       8 UNK        -0.2000 
     52 C          33.5515   32.3532    3.0150 C.2       8 UNK         0.4948 
     53 O          34.3955   31.7846    2.3184 O.2       8 UNK        -0.5275 
     54 N          33.7112   32.6117    4.3210 N.am      9 UNK        -0.4246 
     55 CA         34.8690   32.2957    5.1664 C.3       9 UNK         0.0261 
     56 CB         36.0881   33.1621    4.7759 C.3       9 UNK        -0.1959 
     57 C          35.1678   30.7851    5.1921 C.2       9 UNK         0.5033 
     58 O          34.5477   30.0641    5.9743 O.2       9 UNK        -0.5390 
     59 N          36.0944   30.3355    4.3350 N.am      10 UNK        -0.4215 
     60 CA         36.4154   28.9239    4.1087 C.3       10 UNK         0.0240 
     61 CB         37.7720   28.8263    3.3914 C.3       10 UNK        -0.1982 
     62 C          35.3293   28.1728    3.3134 C.2       10 UNK         0.4970 
     63 O          35.2765   26.9455    3.4027 O.2       10 UNK        -0.4916 
     64 N          34.4929   28.9137    2.5717 N.am      11 UNK        -0.4279 
     65 CA         33.3699   28.4292    1.7546 C.3       11 UNK         0.1003 
     66 C          33.8103   27.6078    0.5055 C.2       11 UNK         0.5709 
     67 N          32.8661   27.0400   -0.2345 N.am      11 UNK        -0.7358 
     68 O          34.9888   27.5133    0.1658 O.2       11 UNK        -0.4999 
     69 C69        32.2741   27.7129    2.5944 C.3       12 UNK        -0.0954 
     70 S70        31.6525   28.7194    3.9853 S.3       12 UNK        -0.2268 
     71 C71        32.0221   27.6639    5.4222 C.3       12 UNK         0.0203 
     72 H72        26.9087   21.5072    1.8817 H         1 UNK         0.0888 
     73 H73        27.9304   20.5196    2.9319 H         1 UNK         0.0888 
     74 H74        27.7961   22.2611    3.2020 H         1 UNK         0.0888 
     75 H75        29.7584   23.2041    2.6396 H         1 UNK         0.3017 
     76 H76        31.5368   22.1546    0.6218 H         1 UNK         0.0873 
     77 H77        31.5619   24.7313    2.2804 H         1 UNK         0.0745 
     78 H78        32.8019   24.3364    1.1311 H         1 UNK         0.0745 
     79 H79        32.4359   22.3033    5.2706 H         1 UNK         0.0705 
     80 H80        31.1280   21.9264    4.1846 H         1 UNK         0.0705 
     81 H81        32.9497   25.1845    4.7937 H         1 UNK         0.1334 
     82 H82        29.3805   27.2522    5.9439 H         1 UNK         0.1417 
     83 H83        29.2364   23.0533    5.0849 H         1 UNK         0.1562 
     84 H84        27.3844   25.9517    6.5162 H         1 UNK         0.0748 
     85 H85        27.4235   24.2126    6.4230 H         1 UNK         0.0748 
     86 H86        27.6210   27.3489    4.3881 H         1 UNK         0.0940 
     87 H87        25.9085   27.4498    4.1266 H         1 UNK         0.0940 
     88 H88        27.8216   26.2718    2.0503 H         1 UNK         0.0703 
     89 H89        26.0336   25.8161    0.9051 H         1 UNK         0.3081 
     90 H90        23.0862   25.9436    0.9441 H         1 UNK         0.0719 
     91 H91        21.9890   27.3592   -0.8213 H         1 UNK         0.0809 
     92 H92        23.2459   28.5795   -0.6207 H         1 UNK         0.0809 
     93 H93        22.1397   28.2200    0.6995 H         1 UNK         0.0809 
     94 H94        25.1455   26.5610   -1.1141 H         1 UNK         0.2990 
     95 H95        25.0020   23.2250   -2.2205 H         1 UNK         0.0690 
     96 H96        25.0218   24.1511   -4.5101 H         1 UNK         0.0788 
     97 H97        24.4656   25.7185   -3.9204 H         1 UNK         0.0788 
     98 H98        23.4136   24.3129   -3.8285 H         1 UNK         0.0788 
     99 H99        26.8155   25.0557   -3.1198 H         1 UNK         0.2993 
    100 H100       29.0199   24.5600   -2.3147 H         1 UNK         0.0949 
    101 H101       28.5549   27.0041   -0.4891 H         1 UNK         0.0767 
    102 H102       29.9474   26.7738   -1.5406 H         1 UNK         0.0767 
    103 H103       28.3504   26.9889   -2.2350 H         1 UNK         0.0767 
    104 H104       28.8260   24.2778    0.5603 H         1 UNK         0.3013 
    105 H105       25.8730   29.2168    1.8560 H         1 UNK         0.3121 
    106 H106       26.2385   31.2866    1.2003 H         1 UNK         0.0774 
    107 H107       28.1440   31.9132   -0.2361 H         1 UNK         0.0815 
    108 H108       29.0102   30.4492    0.1921 H         1 UNK         0.0815 
    109 H109       27.5121   30.3516   -0.7325 H         1 UNK         0.0815 
    110 H110       28.6851   29.9497    3.2786 H         1 UNK         0.2987 
    111 H111       29.7308   30.6433    5.1138 H         1 UNK         0.0949 
    112 H112       27.9574   33.1361    5.1472 H         1 UNK         0.0806 
    113 H113       27.5227   31.5771    5.8482 H         1 UNK         0.0806 
    114 H114       28.8828   32.4828    6.4881 H         1 UNK         0.0806 
    115 H115       30.7060   31.3085    2.4675 H         1 UNK         0.3010 
    116 H116       32.1042   33.8635    2.5852 H         1 UNK         0.0829 
    117 H117       31.2442   32.9737    0.4398 H         1 UNK         0.0813 
    118 H118       32.9924   33.1196    0.3782 H         1 UNK         0.0813 
    119 H119       32.2553   31.5384    0.5919 H         1 UNK         0.0813 
    120 H120       32.9122   33.0173    4.8004 H         1 UNK         0.3038 
    121 H121       34.5896   32.5689    6.1853 H         1 UNK         0.0769 
    122 H122       36.3780   33.0362    3.7324 H         1 UNK         0.0811 
    123 H123       35.8753   34.2204    4.9277 H         1 UNK         0.0811 
    124 H124       36.9552   32.9201    5.3921 H         1 UNK         0.0811 
    125 H125       36.5163   31.0051    3.7070 H         1 UNK         0.3204 
    126 H126       36.5058   28.4339    5.0806 H         1 UNK         0.0748 
    127 H127       38.0571   27.7845    3.2376 H         1 UNK         0.0771 
    128 H128       37.7457   29.3043    2.4112 H         1 UNK         0.0771 
    129 H129       38.5650   29.2949    3.9746 H         1 UNK         0.0771 
    130 H130       34.6291   29.9203    2.5450 H         1 UNK         0.2980 
    131 H131       32.9228   29.3343    1.3444 H         1 UNK         0.0545 
    132 H132       31.8923   27.1372    0.0017 H         1 UNK         0.3459 
    133 H133       33.1351   26.5169   -1.0528 H         1 UNK         0.3459 
    134 H134       31.4095   27.4653    1.9783 H         1 UNK         0.0616 
    135 H135       32.6597   26.7641    2.9621 H         1 UNK         0.0616 
    136 H136       31.7677   28.2061    6.3338 H         1 UNK         0.0634 
    137 H137       33.0968   27.4795    5.4638 H         1 UNK         0.0634 
@<TRIPOS>BOND
     1    1    2 1    
     2    1   72 1    
     3    1   73 1    
     4    1   74 1    
     5    2    3 2    
     6    2    4 am   BACKBONE|DICT|INTERRES
     7    4    5 1    
     8    4   75 1    
     9    5    6 1    
    10    5   35 1    
    11    5   76 1    
    12    6    7 1    
    13    6   77 1    
    14    6   78 1    
    15    7    8 1    
    16    8    9 1    
    17    8   79 1    
    18    8   80 1    
    19    9   10 ar   
    20    9   14 ar   
    21   10   11 ar   
    22   10   81 1    
    23   11   12 ar   
    24   11   71 1    
    25   12   13 ar   
    26   12   82 1    
    27   13   14 ar   
    28   13   15 1    
    29   14   83 1    
    30   15   16 1    
    31   15   84 1    
    32   15   85 1    
    33   16   17 1    
    34   17   18 1    
    35   17   86 1    
    36   17   87 1    
    37   18   19 1    
    38   18   37 1    
    39   18   88 1    
    40   19   20 am   BACKBONE|DICT|INTERRES
    41   19   89 1    
    42   20   21 2    
    43   20   22 1    
    44   22   23 1    
    45   22   24 1    
    46   22   90 1    
    47   23   91 1    
    48   23   92 1    
    49   23   93 1    
    50   24   25 am   BACKBONE|DICT|INTERRES
    51   24   94 1    
    52   25   26 2    
    53   25   27 1    
    54   27   28 1    
    55   27   29 1    
    56   27   95 1    
    57   28   96 1    
    58   28   97 1    
    59   28   98 1    
    60   29   30 am   BACKBONE|DICT|INTERRES
    61   29   99 1    
    62   30   31 2    
    63   30   32 1    
    64   32   33 1    
    65   32   34 1    
    66   32  100 1    
    67   33  101 1    
    68   33  102 1    
    69   33  103 1    
    70   34   35 am   BACKBONE|DICT|INTERRES
    71   34  104 1    
    72   35   36 2    
    73   37   38 2    
    74   37   39 am   BACKBONE|DICT|INTERRES
    75   39   40 1    
    76   39  105 1    
    77   40   41 1    
    78   40   42 1    
    79   40  106 1    
    80   41  107 1    
    81   41  108 1    
    82   41  109 1    
    83   42   43 2    
    84   42   44 am   BACKBONE|DICT|INTERRES
    85   44   45 1    
    86   44  110 1    
    87   45   46 1    
    88   45   47 1    
    89   45  111 1    
    90   46  112 1    
    91   46  113 1    
    92   46  114 1    
    93   47   48 2    
    94   47   49 am   BACKBONE|DICT|INTERRES
    95   49   50 1    
    96   49  115 1    
    97   50   51 1    
    98   50   52 1    
    99   50  116 1    
   100   51  117 1    
   101   51  118 1    
   102   51  119 1    
   103   52   53 2    
   104   52   54 am   BACKBONE|DICT|INTERRES
   105   54   55 1    
   106   54  120 1    
   107   55   56 1    
   108   55   57 1    
   109   55  121 1    
   110   56  122 1    
   111   56  123 1    
   112   56  124 1    
   113   57   58 2    
   114   57   59 am   BACKBONE|DICT|INTERRES
   115   59   60 1    
   116   59  125 1    
   117   60   61 1    
   118   60   62 1    
   119   60  126 1    
   120   61  127 1    
   121   61  128 1    
   122   61  129 1    
   123   62   63 2    
   124   62   64 am   BACKBONE|DICT|INTERRES
   125   64   65 1    
   126   64  130 1    
   127   65   66 1    
   128   65   69 1    
   129   65  131 1    
   130   66   67 am   BACKBONE|DICT|INTERRES
   131   66   68 2    
   132   67  132 1    
   133   67  133 1    
   134   69   70 1    
   135   69  134 1    
   136   69  135 1    
   137   70   71 1    
   138   71  136 1    
   139   71  137 1    
@<TRIPOS>SUBSTRUCTURE
     1 UNK         1 GROUP             0       ****    0 ROOT    
