@<TRIPOS>MOLECULE
3R136
137   139    1
SMALL
USER_CHARGES


@<TRIPOS>ATOM
      1 CA         26.5644   22.0014    2.2176 C.3       0 UNK        -0.1979 
      2 C          27.5089   22.3023    1.0640 C.2       0 UNK         0.4864 
      3 O          27.4117   21.6636    0.0148 O.2       0 UNK        -0.5359 
      4 N          28.4104   23.2794    1.2391 N.am      1 UNK        -0.4318 
      5 CA         29.3571   23.7584    0.2259 C.3       1 UNK         0.0824 
      6 C6         30.3906   24.7411    0.8349 C.3       12 UNK        -0.0944 
      7 S7         31.7900   23.8849    1.6367 S.3       12 UNK        -0.2672 
      8 C8         31.1070   23.2763    3.2174 C.3       12 UNK         0.0333 
      9 C9         30.5183   24.3822    4.0828 C.ar      12 UNK        -0.0807 
     10 C10        31.3244   25.4348    4.5246 C.ar      12 UNK        -0.0894 
     11 C11        30.7900   26.4555    5.3155 C.ar      12 UNK        -0.0804 
     12 C12        29.4365   26.4225    5.6612 C.ar      12 UNK        -0.0824 
     13 C13        28.6209   25.3696    5.2335 C.ar      12 UNK        -0.0762 
     14 C14        29.1725   24.3439    4.4605 C.ar      12 UNK        -0.0782 
     15 C15        27.1464   25.3357    5.6169 C.3       12 UNK         0.0230 
     16 S16        26.0390   25.4984    4.1757 S.3       12 UNK        -0.2608 
     17 C17        26.5369   27.1111    3.4809 C.3       12 UNK        -0.0989 
     18 CA         26.9930   26.9687    2.0021 C.3       5 UNK         0.0716 
     19 N          25.9269   26.5821    1.0653 N.am      5 UNK        -0.4135 
     20 C          24.8060   27.2710    0.8021 C.2       4 UNK         0.5031 
     21 O          24.4520   28.2727    1.4253 O.2       4 UNK        -0.5229 
     22 CA         23.9384   26.8120   -0.3854 C.3       4 UNK         0.0329 
     23 CB         23.9944   27.8554   -1.5148 C.3       4 UNK        -0.2001 
     24 N          24.3044   25.5117   -0.9485 N.am      4 UNK        -0.4303 
     25 C          24.0187   24.3146   -0.4253 C.2       3 UNK         0.5044 
     26 O          23.4508   24.1624    0.6557 O.2       3 UNK        -0.5152 
     27 CA         24.4376   23.0716   -1.2366 C.3       3 UNK         0.0319 
     28 CB         23.3391   22.6667   -2.2385 C.3       3 UNK        -0.2001 
     29 N          25.7541   23.1761   -1.8861 N.am      3 UNK        -0.4354 
     30 C          26.1514   23.9888   -2.8803 C.2       2 UNK         0.4964 
     31 O          25.3969   24.7682   -3.4643 O.2       2 UNK        -0.5047 
     32 CA         27.6548   23.9703   -3.2356 C.3       2 UNK         0.0288 
     33 CB         28.1082   25.2591   -3.9542 C.3       2 UNK        -0.2113 
     34 N          28.5116   23.6944   -2.0732 N.am      2 UNK        -0.4145 
     35 C          28.5695   24.3994   -0.9324 C.2       1 UNK         0.5006 
     36 O          27.9728   25.4617   -0.7403 O.2       1 UNK        -0.5103 
     37 C          27.7441   28.2020    1.4588 C.2       5 UNK         0.5055 
     38 O          27.9432   29.1895    2.1701 O.2       5 UNK        -0.5220 
     39 N          28.1524   28.1152    0.1852 N.am      6 UNK        -0.4450 
     40 CA         28.8550   29.1499   -0.5758 C.3       6 UNK         0.0367 
     41 CB         28.6224   28.8968   -2.0765 C.3       6 UNK        -0.1929 
     42 C          30.3521   29.2176   -0.2137 C.2       6 UNK         0.5070 
     43 O          31.2110   29.1032   -1.0894 O.2       6 UNK        -0.5237 
     44 N          30.6357   29.3937    1.0792 N.am      7 UNK        -0.4739 
     45 CA         31.9765   29.4777    1.6574 C.3       7 UNK         0.0276 
     46 CB         32.4536   28.0710    2.0639 C.3       7 UNK        -0.1927 
     47 C          32.0044   30.4960    2.8091 C.2       7 UNK         0.5013 
     48 O          32.7380   30.3125    3.7831 O.2       7 UNK        -0.5193 
     49 N          31.2044   31.5652    2.6791 N.am      8 UNK        -0.4253 
     50 CA         31.1331   32.6858    3.6190 C.3       8 UNK         0.0242 
     51 CB         30.0505   33.6749    3.1566 C.3       8 UNK        -0.2000 
     52 C          32.4979   33.3817    3.7522 C.2       8 UNK         0.4948 
     53 O          33.0517   33.8232    2.7433 O.2       8 UNK        -0.5275 
     54 N          33.0222   33.4118    4.9855 N.am      9 UNK        -0.4246 
     55 CA         34.3607   33.8791    5.3755 C.3       9 UNK         0.0261 
     56 CB         34.5455   35.3802    5.0632 C.3       9 UNK        -0.1959 
     57 C          35.5245   33.0179    4.8331 C.2       9 UNK         0.5033 
     58 O          36.6764   33.4445    4.9320 O.2       9 UNK        -0.5390 
     59 N          35.2276   31.8186    4.3118 N.am      10 UNK        -0.4215 
     60 CA         36.1987   30.8372    3.8169 C.3       10 UNK         0.0240 
     61 CB         36.0226   30.6857    2.2942 C.3       10 UNK        -0.1982 
     62 C          36.0509   29.4871    4.5445 C.2       10 UNK         0.4970 
     63 O          36.5618   28.4779    4.0569 O.2       10 UNK        -0.4916 
     64 N          35.3512   29.4843    5.6873 N.am      11 UNK        -0.4279 
     65 CA         35.0386   28.2954    6.4936 C.3       11 UNK         0.1003 
     66 C          36.2242   27.7360    7.3349 C.2       11 UNK         0.5709 
     67 N          37.3506   28.4314    7.4417 N.am      11 UNK        -0.7358 
     68 O          36.1249   26.6465    7.8938 O.2       11 UNK        -0.4999 
     69 C69        33.7631   28.5384    7.3538 C.3       12 UNK        -0.0954 
     70 S70        32.6025   27.1378    7.2810 S.3       12 UNK        -0.2268 
     71 C71        31.6780   27.5951    5.7848 C.3       12 UNK         0.0203 
     72 H72        26.6252   22.7507    3.0050 H         1 UNK         0.0888 
     73 H73        25.5344   21.9779    1.8626 H         1 UNK         0.0888 
     74 H74        26.7981   21.0290    2.6499 H         1 UNK         0.0888 
     75 H75        28.4244   23.7875    2.1094 H         1 UNK         0.3017 
     76 H76        29.8939   22.8931   -0.1697 H         1 UNK         0.0873 
     77 H77        29.9289   25.4388    1.5345 H         1 UNK         0.0745 
     78 H78        30.8324   25.3653    0.0550 H         1 UNK         0.0745 
     79 H79        30.3704   22.4984    3.0137 H         1 UNK         0.0705 
     80 H80        31.9086   22.7889    3.7739 H         1 UNK         0.0705 
     81 H81        32.3700   25.4611    4.2486 H         1 UNK         0.1334 
     82 H82        29.0208   27.2152    6.2685 H         1 UNK         0.1417 
     83 H83        28.5475   23.5157    4.1606 H         1 UNK         0.1562 
     84 H84        26.9118   26.1255    6.3323 H         1 UNK         0.0748 
     85 H85        26.9305   24.3934    6.1225 H         1 UNK         0.0748 
     86 H86        27.3403   27.5276    4.0894 H         1 UNK         0.0940 
     87 H87        25.7092   27.8131    3.5820 H         1 UNK         0.0940 
     88 H88        27.7231   26.1601    1.9733 H         1 UNK         0.0703 
     89 H89        26.1576   25.8163    0.4461 H         1 UNK         0.3081 
     90 H90        22.9089   26.7502   -0.0264 H         1 UNK         0.0719 
     91 H91        23.6859   28.8393   -1.1585 H         1 UNK         0.0809 
     92 H92        25.0027   27.9560   -1.9191 H         1 UNK         0.0809 
     93 H93        23.3291   27.5880   -2.3360 H         1 UNK         0.0809 
     94 H94        24.7493   25.5146   -1.8630 H         1 UNK         0.2990 
     95 H95        24.5360   22.2553   -0.5193 H         1 UNK         0.0690 
     96 H96        23.6041   21.7518   -2.7684 H         1 UNK         0.0788 
     97 H97        23.1537   23.4433   -2.9811 H         1 UNK         0.0788 
     98 H98        22.3951   22.4815   -1.7242 H         1 UNK         0.0788 
     99 H99        26.4691   22.6020   -1.4459 H         1 UNK         0.2993 
    100 H100       27.7920   23.1374   -3.9270 H         1 UNK         0.0949 
    101 H101       27.8880   26.1473   -3.3625 H         1 UNK         0.0767 
    102 H102       29.1785   25.2469   -4.1597 H         1 UNK         0.0767 
    103 H103       27.5958   25.3736   -4.9102 H         1 UNK         0.0767 
    104 H104       29.0078   22.8138   -2.1063 H         1 UNK         0.3013 
    105 H105       28.0134   27.2260   -0.2927 H         1 UNK         0.3121 
    106 H106       28.4176   30.1196   -0.3290 H         1 UNK         0.0774 
    107 H107       29.0736   27.9573   -2.3970 H         1 UNK         0.0815 
    108 H108       27.5596   28.8591   -2.3157 H         1 UNK         0.0815 
    109 H109       29.0622   29.6920   -2.6798 H         1 UNK         0.0815 
    110 H110       29.8542   29.4642    1.7269 H         1 UNK         0.2987 
    111 H111       32.6708   29.8668    0.9094 H         1 UNK         0.0949 
    112 H112       32.5613   27.4250    1.1925 H         1 UNK         0.0806 
    113 H113       33.4229   28.1014    2.5636 H         1 UNK         0.0806 
    114 H114       31.7430   27.5950    2.7375 H         1 UNK         0.0806 
    115 H115       30.6625   31.6507    1.8319 H         1 UNK         0.3010 
    116 H116       30.8367   32.2831    4.5900 H         1 UNK         0.0829 
    117 H117       30.2758   34.0906    2.1735 H         1 UNK         0.0813 
    118 H118       29.9649   34.5113    3.8516 H         1 UNK         0.0813 
    119 H119       29.0719   33.1972    3.1036 H         1 UNK         0.0813 
    120 H120       32.4768   33.0093    5.7361 H         1 UNK         0.3038 
    121 H121       34.4027   33.7703    6.4603 H         1 UNK         0.0769 
    122 H122       33.7234   35.9738    5.4628 H         1 UNK         0.0811 
    123 H123       34.6064   35.5685    3.9910 H         1 UNK         0.0811 
    124 H124       35.4645   35.7627    5.5091 H         1 UNK         0.0811 
    125 H125       34.2544   31.5286    4.2512 H         1 UNK         0.3204 
    126 H126       37.2176   31.1784    4.0093 H         1 UNK         0.0748 
    127 H127       35.0475   30.2689    2.0418 H         1 UNK         0.0771 
    128 H128       36.1172   31.6465    1.7879 H         1 UNK         0.0771 
    129 H129       36.7802   30.0234    1.8734 H         1 UNK         0.0771 
    130 H130       34.9934   30.3609    6.0327 H         1 UNK         0.2980 
    131 H131       34.8156   27.5072    5.7715 H         1 UNK         0.0545 
    132 H132       37.4471   29.3236    6.9848 H         1 UNK         0.3459 
    133 H133       38.1122   28.0562    7.9848 H         1 UNK         0.3459 
    134 H134       33.2233   29.4263    7.0189 H         1 UNK         0.0616 
    135 H135       34.0106   28.7349    8.3988 H         1 UNK         0.0616 
    136 H136       32.3856   27.8585    4.9985 H         1 UNK         0.0634 
    137 H137       31.0863   28.4911    5.9792 H         1 UNK         0.0634 
@<TRIPOS>BOND
     1    1    2 1    
     2    1   72 1    
     3    1   73 1    
     4    1   74 1    
     5    2    3 2    
     6    2    4 am   BACKBONE|DICT|INTERRES
     7    4    5 1    
     8    4   75 1    
     9    5    6 1    
    10    5   35 1    
    11    5   76 1    
    12    6    7 1    
    13    6   77 1    
    14    6   78 1    
    15    7    8 1    
    16    8    9 1    
    17    8   79 1    
    18    8   80 1    
    19    9   10 ar   
    20    9   14 ar   
    21   10   11 ar   
    22   10   81 1    
    23   11   12 ar   
    24   11   71 1    
    25   12   13 ar   
    26   12   82 1    
    27   13   14 ar   
    28   13   15 1    
    29   14   83 1    
    30   15   16 1    
    31   15   84 1    
    32   15   85 1    
    33   16   17 1    
    34   17   18 1    
    35   17   86 1    
    36   17   87 1    
    37   18   19 1    
    38   18   37 1    
    39   18   88 1    
    40   19   20 am   BACKBONE|DICT|INTERRES
    41   19   89 1    
    42   20   21 2    
    43   20   22 1    
    44   22   23 1    
    45   22   24 1    
    46   22   90 1    
    47   23   91 1    
    48   23   92 1    
    49   23   93 1    
    50   24   25 am   BACKBONE|DICT|INTERRES
    51   24   94 1    
    52   25   26 2    
    53   25   27 1    
    54   27   28 1    
    55   27   29 1    
    56   27   95 1    
    57   28   96 1    
    58   28   97 1    
    59   28   98 1    
    60   29   30 am   BACKBONE|DICT|INTERRES
    61   29   99 1    
    62   30   31 2    
    63   30   32 1    
    64   32   33 1    
    65   32   34 1    
    66   32  100 1    
    67   33  101 1    
    68   33  102 1    
    69   33  103 1    
    70   34   35 am   BACKBONE|DICT|INTERRES
    71   34  104 1    
    72   35   36 2    
    73   37   38 2    
    74   37   39 am   BACKBONE|DICT|INTERRES
    75   39   40 1    
    76   39  105 1    
    77   40   41 1    
    78   40   42 1    
    79   40  106 1    
    80   41  107 1    
    81   41  108 1    
    82   41  109 1    
    83   42   43 2    
    84   42   44 am   BACKBONE|DICT|INTERRES
    85   44   45 1    
    86   44  110 1    
    87   45   46 1    
    88   45   47 1    
    89   45  111 1    
    90   46  112 1    
    91   46  113 1    
    92   46  114 1    
    93   47   48 2    
    94   47   49 am   BACKBONE|DICT|INTERRES
    95   49   50 1    
    96   49  115 1    
    97   50   51 1    
    98   50   52 1    
    99   50  116 1    
   100   51  117 1    
   101   51  118 1    
   102   51  119 1    
   103   52   53 2    
   104   52   54 am   BACKBONE|DICT|INTERRES
   105   54   55 1    
   106   54  120 1    
   107   55   56 1    
   108   55   57 1    
   109   55  121 1    
   110   56  122 1    
   111   56  123 1    
   112   56  124 1    
   113   57   58 2    
   114   57   59 am   BACKBONE|DICT|INTERRES
   115   59   60 1    
   116   59  125 1    
   117   60   61 1    
   118   60   62 1    
   119   60  126 1    
   120   61  127 1    
   121   61  128 1    
   122   61  129 1    
   123   62   63 2    
   124   62   64 am   BACKBONE|DICT|INTERRES
   125   64   65 1    
   126   64  130 1    
   127   65   66 1    
   128   65   69 1    
   129   65  131 1    
   130   66   67 am   BACKBONE|DICT|INTERRES
   131   66   68 2    
   132   67  132 1    
   133   67  133 1    
   134   69   70 1    
   135   69  134 1    
   136   69  135 1    
   137   70   71 1    
   138   71  136 1    
   139   71  137 1    
@<TRIPOS>SUBSTRUCTURE
     1 UNK         1 GROUP             0       ****    0 ROOT    
