@<TRIPOS>MOLECULE
3R136
137   139    1
SMALL
USER_CHARGES


@<TRIPOS>ATOM
      1 CA         29.1235   23.8225   -5.2099 C.3       0 UNK        -0.1979 
      2 C          28.6347   24.4490   -3.9129 C.2       0 UNK         0.4864 
      3 O          27.4501   24.7668   -3.7954 O.2       0 UNK        -0.5359 
      4 N          29.5340   24.6170   -2.9318 N.am      1 UNK        -0.4318 
      5 CA         29.2560   25.2104   -1.6159 C.3       1 UNK         0.0824 
      6 C6         30.5440   25.4393   -0.7872 C.3       12 UNK        -0.0944 
      7 S7         31.5164   23.9187   -0.5096 S.3       12 UNK        -0.2672 
      8 C8         32.4627   24.3625    0.9850 C.3       12 UNK         0.0333 
      9 C9         31.6772   24.3470    2.2986 C.ar      12 UNK        -0.0807 
     10 C10        32.1195   25.1624    3.3469 C.ar      12 UNK        -0.0894 
     11 C11        31.5121   25.1047    4.6038 C.ar      12 UNK        -0.0804 
     12 C12        30.4373   24.2372    4.8064 C.ar      12 UNK        -0.0824 
     13 C13        29.9714   23.4220    3.7710 C.ar      12 UNK        -0.0762 
     14 C14        30.5946   23.4805    2.5184 C.ar      12 UNK        -0.0782 
     15 C15        28.8373   22.4362    4.0379 C.3       12 UNK         0.0230 
     16 S16        27.2085   23.0288    3.4704 S.3       12 UNK        -0.2608 
     17 C17        27.0409   24.6266    4.3343 C.3       12 UNK        -0.0989 
     18 CA         27.3809   25.7876    3.3654 C.3       5 UNK         0.0716 
     19 N          26.3957   25.9546    2.2894 N.am      5 UNK        -0.4135 
     20 C          25.1455   26.4269    2.3990 C.2       4 UNK         0.5031 
     21 O          24.6141   26.7289    3.4681 O.2       4 UNK        -0.5229 
     22 CA         24.3502   26.6242    1.1000 C.3       4 UNK         0.0329 
     23 CB         24.6975   27.9802    0.4611 C.3       4 UNK        -0.2001 
     24 N          24.5693   25.5544    0.1205 N.am      4 UNK        -0.4303 
     25 C          23.5908   24.9402   -0.5627 C.2       3 UNK         0.5044 
     26 O          22.3933   25.1872   -0.4099 O.2       3 UNK        -0.5152 
     27 CA         23.9902   23.8862   -1.6163 C.3       3 UNK         0.0319 
     28 CB         23.8814   24.4778   -3.0311 C.3       3 UNK        -0.2001 
     29 N          25.3379   23.3467   -1.4357 N.am      3 UNK        -0.4354 
     30 C          25.7070   22.5267   -0.4414 C.2       2 UNK         0.4964 
     31 O          24.9184   22.0534    0.3769 O.2       2 UNK        -0.5047 
     32 CA         27.2057   22.1849   -0.3227 C.3       2 UNK         0.0288 
     33 CB         27.4753   20.7627   -0.8402 C.3       2 UNK        -0.2113 
     34 N          28.1173   23.1149   -0.9988 N.am      2 UNK        -0.4145 
     35 C          28.2037   24.4388   -0.7960 C.2       1 UNK         0.5006 
     36 O          27.4740   25.0648   -0.0273 O.2       1 UNK        -0.5103 
     37 C          27.6880   27.1283    4.0620 C.2       5 UNK         0.5055 
     38 O          27.5938   27.2444    5.2852 O.2       5 UNK        -0.5220 
     39 N          28.0377   28.1218    3.2369 N.am      6 UNK        -0.4450 
     40 CA         28.4068   29.4764    3.6303 C.3       6 UNK         0.0367 
     41 CB         27.1411   30.3319    3.8383 C.3       6 UNK        -0.1929 
     42 C          29.3501   30.0365    2.5577 C.2       6 UNK         0.5070 
     43 O          29.0389   31.0422    1.9170 O.2       6 UNK        -0.5237 
     44 N          30.4691   29.3333    2.3349 N.am      7 UNK        -0.4739 
     45 CA         31.5063   29.6777    1.3586 C.3       7 UNK         0.0276 
     46 CB         32.4048   28.4520    1.1087 C.3       7 UNK        -0.1927 
     47 C          32.3170   30.9161    1.7866 C.2       7 UNK         0.5013 
     48 O          33.4384   30.7801    2.2834 O.2       7 UNK        -0.5193 
     49 N          31.7164   32.0972    1.5867 N.am      8 UNK        -0.4253 
     50 CA         32.2771   33.4365    1.7922 C.3       8 UNK         0.0242 
     51 CB         33.2846   33.7561    0.6627 C.3       8 UNK        -0.2000 
     52 C          32.8397   33.6276    3.2156 C.2       8 UNK         0.4948 
     53 O          32.1688   33.2633    4.1823 O.2       8 UNK        -0.5275 
     54 N          34.0511   34.1883    3.3192 N.am      9 UNK        -0.4246 
     55 CA         34.7905   34.3590    4.5708 C.3       9 UNK         0.0261 
     56 CB         35.7116   35.5841    4.4365 C.3       9 UNK        -0.1959 
     57 C          35.6057   33.1123    4.9657 C.2       9 UNK         0.5033 
     58 O          36.1242   33.0781    6.0830 O.2       9 UNK        -0.5390 
     59 N          35.7401   32.1302    4.0596 N.am      10 UNK        -0.4215 
     60 CA         36.4784   30.8874    4.2994 C.3       10 UNK         0.0240 
     61 CB         36.8110   30.2014    2.9637 C.3       10 UNK        -0.1982 
     62 C          35.7104   29.9424    5.2348 C.2       10 UNK         0.4970 
     63 O          36.3080   29.3923    6.1607 O.2       10 UNK        -0.4916 
     64 N          34.4028   29.7922    4.9909 N.am      11 UNK        -0.4279 
     65 CA         33.4740   29.0999    5.8902 C.3       11 UNK         0.1003 
     66 C          33.1461   29.9739    7.1326 C.2       11 UNK         0.5709 
     67 N          33.1831   29.4016    8.3286 N.am      11 UNK        -0.7358 
     68 O          32.8351   31.1573    7.0177 O.2       11 UNK        -0.4999 
     69 C69        32.2069   28.6550    5.1178 C.3       12 UNK        -0.0954 
     70 S70        31.1670   27.4711    6.0325 S.3       12 UNK        -0.2268 
     71 C71        32.0626   25.9087    5.7725 C.3       12 UNK         0.0203 
     72 H72        28.9585   24.5069   -6.0415 H         1 UNK         0.0888 
     73 H73        30.1862   23.5837   -5.1726 H         1 UNK         0.0888 
     74 H74        28.5755   22.9025   -5.4116 H         1 UNK         0.0888 
     75 H75        30.4905   24.3249   -3.0780 H         1 UNK         0.3017 
     76 H76        28.8191   26.1926   -1.8096 H         1 UNK         0.0873 
     77 H77        30.2955   25.8884    0.1766 H         1 UNK         0.0745 
     78 H78        31.1846   26.1615   -1.2957 H         1 UNK         0.0745 
     79 H79        33.2875   23.6555    1.0822 H         1 UNK         0.0705 
     80 H80        32.9190   25.3407    0.8261 H         1 UNK         0.0705 
     81 H81        32.9712   25.8124    3.1986 H         1 UNK         0.1334 
     82 H82        29.9803   24.1794    5.7850 H         1 UNK         0.1417 
     83 H83        30.2522   22.8259    1.7290 H         1 UNK         0.1562 
     84 H84        28.7767   22.2063    5.1028 H         1 UNK         0.0748 
     85 H85        29.0555   21.4900    3.5405 H         1 UNK         0.0748 
     86 H86        27.6888   24.6286    5.2112 H         1 UNK         0.0940 
     87 H87        26.0240   24.7240    4.7173 H         1 UNK         0.0940 
     88 H88        28.3141   25.5280    2.8627 H         1 UNK         0.0703 
     89 H89        26.7466   25.6988    1.3669 H         1 UNK         0.3081 
     90 H90        23.2978   26.6512    1.3908 H         1 UNK         0.0719 
     91 H91        24.0558   28.1883   -0.3952 H         1 UNK         0.0809 
     92 H92        25.7326   28.0127    0.1187 H         1 UNK         0.0809 
     93 H93        24.5617   28.7959    1.1729 H         1 UNK         0.0809 
     94 H94        25.5300   25.2770   -0.0531 H         1 UNK         0.2990 
     95 H95        23.2801   23.0604   -1.5363 H         1 UNK         0.0690 
     96 H96        24.0842   23.7250   -3.7931 H         1 UNK         0.0788 
     97 H97        24.5829   25.3004   -3.1785 H         1 UNK         0.0788 
     98 H98        22.8789   24.8653   -3.2185 H         1 UNK         0.0788 
     99 H99        26.0488   23.6847   -2.0719 H         1 UNK         0.2993 
    100 H100       27.4535   22.2117    0.7385 H         1 UNK         0.0949 
    101 H101       28.5084   20.4638   -0.6609 H         1 UNK         0.0767 
    102 H102       26.8385   20.0350   -0.3347 H         1 UNK         0.0767 
    103 H103       27.2803   20.6799   -1.9102 H         1 UNK         0.0767 
    104 H104       28.7640   22.7068   -1.6579 H         1 UNK         0.3013 
    105 H105       28.0882   27.9314    2.2452 H         1 UNK         0.3121 
    106 H106       28.9652   29.4438    4.5686 H         1 UNK         0.0774 
    107 H107       27.4019   31.3528    4.1199 H         1 UNK         0.0815 
    108 H108       26.5376   30.3847    2.9313 H         1 UNK         0.0815 
    109 H109       26.5145   29.9268    4.6330 H         1 UNK         0.0815 
    110 H110       30.6422   28.5191    2.9067 H         1 UNK         0.2987 
    111 H111       31.0158   29.9166    0.4120 H         1 UNK         0.0949 
    112 H112       32.9764   28.1663    1.9904 H         1 UNK         0.0806 
    113 H113       31.8201   27.5899    0.7946 H         1 UNK         0.0806 
    114 H114       33.1254   28.6591    0.3166 H         1 UNK         0.0806 
    115 H115       30.7380   32.0648    1.3188 H         1 UNK         0.3010 
    116 H116       31.4438   34.1349    1.7027 H         1 UNK         0.0829 
    117 H117       32.8264   33.6172   -0.3168 H         1 UNK         0.0813 
    118 H118       33.6197   34.7934    0.7039 H         1 UNK         0.0813 
    119 H119       34.1648   33.1128    0.7035 H         1 UNK         0.0813 
    120 H120       34.5226   34.4715    2.4718 H         1 UNK         0.3038 
    121 H121       34.0839   34.5531    5.3808 H         1 UNK         0.0769 
    122 H122       36.2518   35.7710    5.3658 H         1 UNK         0.0811 
    123 H123       35.1425   36.4858    4.2095 H         1 UNK         0.0811 
    124 H124       36.4552   35.4479    3.6502 H         1 UNK         0.0811 
    125 H125       35.2364   32.1998    3.1860 H         1 UNK         0.3204 
    126 H126       37.4227   31.1412    4.7864 H         1 UNK         0.0748 
    127 H127       37.3980   29.2969    3.1286 H         1 UNK         0.0771 
    128 H128       35.9143   29.9094    2.4168 H         1 UNK         0.0771 
    129 H129       37.3988   30.8545    2.3185 H         1 UNK         0.0771 
    130 H130       33.9942   30.2795    4.2006 H         1 UNK         0.2980 
    131 H131       33.9818   28.1984    6.2375 H         1 UNK         0.0545 
    132 H132       33.4196   28.4275    8.4327 H         1 UNK         0.3459 
    133 H133       32.9621   29.9536    9.1423 H         1 UNK         0.3459 
    134 H134       32.4911   28.1820    4.1797 H         1 UNK         0.0616 
    135 H135       31.6011   29.5239    4.8566 H         1 UNK         0.0616 
    136 H136       31.9852   25.3162    6.6854 H         1 UNK         0.0634 
    137 H137       33.1275   26.0985    5.6340 H         1 UNK         0.0634 
@<TRIPOS>BOND
     1    1    2 1    
     2    1   72 1    
     3    1   73 1    
     4    1   74 1    
     5    2    3 2    
     6    2    4 am   BACKBONE|DICT|INTERRES
     7    4    5 1    
     8    4   75 1    
     9    5    6 1    
    10    5   35 1    
    11    5   76 1    
    12    6    7 1    
    13    6   77 1    
    14    6   78 1    
    15    7    8 1    
    16    8    9 1    
    17    8   79 1    
    18    8   80 1    
    19    9   10 ar   
    20    9   14 ar   
    21   10   11 ar   
    22   10   81 1    
    23   11   12 ar   
    24   11   71 1    
    25   12   13 ar   
    26   12   82 1    
    27   13   14 ar   
    28   13   15 1    
    29   14   83 1    
    30   15   16 1    
    31   15   84 1    
    32   15   85 1    
    33   16   17 1    
    34   17   18 1    
    35   17   86 1    
    36   17   87 1    
    37   18   19 1    
    38   18   37 1    
    39   18   88 1    
    40   19   20 am   BACKBONE|DICT|INTERRES
    41   19   89 1    
    42   20   21 2    
    43   20   22 1    
    44   22   23 1    
    45   22   24 1    
    46   22   90 1    
    47   23   91 1    
    48   23   92 1    
    49   23   93 1    
    50   24   25 am   BACKBONE|DICT|INTERRES
    51   24   94 1    
    52   25   26 2    
    53   25   27 1    
    54   27   28 1    
    55   27   29 1    
    56   27   95 1    
    57   28   96 1    
    58   28   97 1    
    59   28   98 1    
    60   29   30 am   BACKBONE|DICT|INTERRES
    61   29   99 1    
    62   30   31 2    
    63   30   32 1    
    64   32   33 1    
    65   32   34 1    
    66   32  100 1    
    67   33  101 1    
    68   33  102 1    
    69   33  103 1    
    70   34   35 am   BACKBONE|DICT|INTERRES
    71   34  104 1    
    72   35   36 2    
    73   37   38 2    
    74   37   39 am   BACKBONE|DICT|INTERRES
    75   39   40 1    
    76   39  105 1    
    77   40   41 1    
    78   40   42 1    
    79   40  106 1    
    80   41  107 1    
    81   41  108 1    
    82   41  109 1    
    83   42   43 2    
    84   42   44 am   BACKBONE|DICT|INTERRES
    85   44   45 1    
    86   44  110 1    
    87   45   46 1    
    88   45   47 1    
    89   45  111 1    
    90   46  112 1    
    91   46  113 1    
    92   46  114 1    
    93   47   48 2    
    94   47   49 am   BACKBONE|DICT|INTERRES
    95   49   50 1    
    96   49  115 1    
    97   50   51 1    
    98   50   52 1    
    99   50  116 1    
   100   51  117 1    
   101   51  118 1    
   102   51  119 1    
   103   52   53 2    
   104   52   54 am   BACKBONE|DICT|INTERRES
   105   54   55 1    
   106   54  120 1    
   107   55   56 1    
   108   55   57 1    
   109   55  121 1    
   110   56  122 1    
   111   56  123 1    
   112   56  124 1    
   113   57   58 2    
   114   57   59 am   BACKBONE|DICT|INTERRES
   115   59   60 1    
   116   59  125 1    
   117   60   61 1    
   118   60   62 1    
   119   60  126 1    
   120   61  127 1    
   121   61  128 1    
   122   61  129 1    
   123   62   63 2    
   124   62   64 am   BACKBONE|DICT|INTERRES
   125   64   65 1    
   126   64  130 1    
   127   65   66 1    
   128   65   69 1    
   129   65  131 1    
   130   66   67 am   BACKBONE|DICT|INTERRES
   131   66   68 2    
   132   67  132 1    
   133   67  133 1    
   134   69   70 1    
   135   69  134 1    
   136   69  135 1    
   137   70   71 1    
   138   71  136 1    
   139   71  137 1    
@<TRIPOS>SUBSTRUCTURE
     1 UNK         1 GROUP             0       ****    0 ROOT    
