@<TRIPOS>MOLECULE
3R136
137   139    1
SMALL
USER_CHARGES


@<TRIPOS>ATOM
      1 CA         27.8635   22.0089    4.0115 C.3       0 UNK        -0.1979 
      2 C          28.0636   22.0217    2.4976 C.2       0 UNK         0.4864 
      3 O          27.4204   21.2319    1.8083 O.2       0 UNK        -0.5359 
      4 N          28.9265   22.8730    1.9209 N.am      1 UNK        -0.4318 
      5 CA         29.7699   23.9121    2.5386 C.3       1 UNK         0.0824 
      6 C6         30.8364   23.3881    3.5453 C.3       12 UNK        -0.0944 
      7 S7         31.7942   21.9764    2.8843 S.3       12 UNK        -0.2672 
      8 C8         33.4049   22.7265    2.4607 C.3       12 UNK         0.0333 
      9 C9         33.2995   23.9245    1.5214 C.ar      12 UNK        -0.0807 
     10 C10        33.9966   25.0988    1.8206 C.ar      12 UNK        -0.0894 
     11 C11        33.8920   26.2179    0.9908 C.ar      12 UNK        -0.0804 
     12 C12        33.0684   26.1679   -0.1359 C.ar      12 UNK        -0.0824 
     13 C13        32.3556   25.0050   -0.4404 C.ar      12 UNK        -0.0762 
     14 C14        32.5087   23.8735    0.3671 C.ar      12 UNK        -0.0782 
     15 C15        31.3957   24.9802   -1.6213 C.3       12 UNK         0.0230 
     16 S16        29.6587   25.1323   -1.0825 S.3       12 UNK        -0.2608 
     17 C17        29.5710   26.8695   -0.5191 C.3       12 UNK        -0.0989 
     18 CA         28.9373   27.8071   -1.5756 C.3       5 UNK         0.0716 
     19 N          27.5739   27.3928   -1.9297 N.am      5 UNK        -0.4135 
     20 C          26.9378   27.7360   -3.0592 C.2       4 UNK         0.5031 
     21 O          27.4640   28.3742   -3.9715 O.2       4 UNK        -0.5229 
     22 CA         25.4528   27.3402   -3.1849 C.3       4 UNK         0.0329 
     23 CB         25.3116   26.0463   -4.0024 C.3       4 UNK        -0.2001 
     24 N          24.7627   27.1751   -1.9006 N.am      4 UNK        -0.4303 
     25 C          24.6232   28.1194   -0.9586 C.2       3 UNK         0.5044 
     26 O          25.0340   29.2730   -1.0824 O.2       3 UNK        -0.5152 
     27 CA         23.9748   27.6976    0.3730 C.3       3 UNK         0.0319 
     28 CB         23.0212   26.4881    0.2419 C.3       3 UNK        -0.2001 
     29 N          24.9764   27.4513    1.4207 N.am      3 UNK        -0.4354 
     30 C          26.0012   26.5868    1.3672 C.2       2 UNK         0.4964 
     31 O          26.2769   25.9094    0.3713 O.2       2 UNK        -0.5047 
     32 CA         26.8631   26.4475    2.6319 C.3       2 UNK         0.0288 
     33 CB         26.0201   26.1287    3.8849 C.3       2 UNK        -0.2113 
     34 N          27.8247   25.3793    2.3860 N.am      2 UNK        -0.4145 
     35 C          28.9441   25.1042    3.0639 C.2       1 UNK         0.5006 
     36 O          29.3174   25.7249    4.0589 O.2       1 UNK        -0.5103 
     37 C          29.0198   29.2837   -1.1145 C.2       5 UNK         0.5055 
     38 O          30.1316   29.7793   -0.9229 O.2       5 UNK        -0.5220 
     39 N          27.8715   29.9596   -0.9363 N.am      6 UNK        -0.4450 
     40 CA         27.6694   31.3430   -0.4861 C.3       6 UNK         0.0367 
     41 CB         28.3805   32.3661   -1.3948 C.3       6 UNK        -0.1929 
     42 C          28.0095   31.5545    0.9969 C.2       6 UNK         0.5070 
     43 O          27.1354   31.9571    1.7652 O.2       6 UNK        -0.5237 
     44 N          29.2572   31.2683    1.3798 N.am      7 UNK        -0.4739 
     45 CA         29.7147   31.2625    2.7669 C.3       7 UNK         0.0276 
     46 CB         31.2330   31.4933    2.7988 C.3       7 UNK        -0.1927 
     47 C          29.3521   29.9236    3.4240 C.2       7 UNK         0.5013 
     48 O          29.5542   28.8744    2.8096 O.2       7 UNK        -0.5193 
     49 N          28.8389   29.9845    4.6578 N.am      8 UNK        -0.4253 
     50 CA         28.5112   28.8190    5.4745 C.3       8 UNK         0.0242 
     51 CB         27.2595   29.1209    6.3171 C.3       8 UNK        -0.2000 
     52 C          29.7200   28.4781    6.3525 C.2       8 UNK         0.4948 
     53 O          29.9532   29.1694    7.3459 O.2       8 UNK        -0.5275 
     54 N          30.4839   27.4547    5.9478 N.am      9 UNK        -0.4246 
     55 CA         31.6673   26.8502    6.5845 C.3       9 UNK         0.0261 
     56 CB         31.2734   26.1623    7.9048 C.3       9 UNK        -0.1959 
     57 C          32.8924   27.7640    6.8019 C.2       9 UNK         0.5033 
     58 O          34.0199   27.2760    6.7111 O.2       9 UNK        -0.5390 
     59 N          32.6702   29.0533    7.0856 N.am      10 UNK        -0.4215 
     60 CA         33.6643   30.0731    7.4427 C.3       10 UNK         0.0240 
     61 CB         32.9346   31.3974    7.7214 C.3       10 UNK        -0.1982 
     62 C          34.7891   30.2917    6.4149 C.2       10 UNK         0.4970 
     63 O          35.8642   30.7572    6.7955 O.2       10 UNK        -0.4916 
     64 N          34.5328   29.9492    5.1477 N.am      11 UNK        -0.4279 
     65 CA         35.5285   29.9166    4.0691 C.3       11 UNK         0.1003 
     66 C          36.5900   28.7816    4.1918 C.2       11 UNK         0.5709 
     67 N          36.4053   27.7764    5.0410 N.am      11 UNK        -0.7358 
     68 O          37.6082   28.8225    3.5053 O.2       11 UNK        -0.4999 
     69 C69        34.8468   29.9331    2.6765 C.3       12 UNK        -0.0954 
     70 S70        33.6765   28.5543    2.4206 S.3       12 UNK        -0.2268 
     71 C71        34.6536   27.4879    1.3235 C.3       12 UNK         0.0203 
     72 H72        27.8303   23.0076    4.4412 H         1 UNK         0.0888 
     73 H73        26.9212   21.5219    4.2613 H         1 UNK         0.0888 
     74 H74        28.6630   21.4450    4.4907 H         1 UNK         0.0888 
     75 H75        29.0199   22.8183    0.9162 H         1 UNK         0.3017 
     76 H76        30.3206   24.3494    1.7098 H         1 UNK         0.0873 
     77 H77        31.5284   24.1897    3.8111 H         1 UNK         0.0745 
     78 H78        30.3751   23.0804    4.4835 H         1 UNK         0.0745 
     79 H79        33.9041   23.0079    3.3894 H         1 UNK         0.0705 
     80 H80        34.0324   21.9678    1.9916 H         1 UNK         0.0705 
     81 H81        34.6165   25.1498    2.7057 H         1 UNK         0.1334 
     82 H82        32.9652   27.0445   -0.7612 H         1 UNK         0.1417 
     83 H83        31.9633   22.9701    0.1297 H         1 UNK         0.1562 
     84 H84        31.5155   24.0427   -2.1661 H         1 UNK         0.0748 
     85 H85        31.6271   25.7770   -2.3301 H         1 UNK         0.0748 
     86 H86        30.5691   27.2139   -0.2490 H         1 UNK         0.0940 
     87 H87        28.9976   26.9058    0.4071 H         1 UNK         0.0940 
     88 H88        29.5490   27.7403   -2.4779 H         1 UNK         0.0703 
     89 H89        27.0810   26.8317   -1.2414 H         1 UNK         0.3081 
     90 H90        24.9488   28.1445   -3.7247 H         1 UNK         0.0719 
     91 H91        25.7751   25.1977   -3.4971 H         1 UNK         0.0809 
     92 H92        24.2646   25.8012   -4.1821 H         1 UNK         0.0809 
     93 H93        25.7906   26.1462   -4.9775 H         1 UNK         0.0809 
     94 H94        24.4373   26.2447   -1.6803 H         1 UNK         0.2990 
     95 H95        23.3788   28.5496    0.7040 H         1 UNK         0.0690 
     96 H96        22.4782   26.3207    1.1722 H         1 UNK         0.0788 
     97 H97        23.5468   25.5631    0.0026 H         1 UNK         0.0788 
     98 H98        22.2750   26.6573   -0.5358 H         1 UNK         0.0788 
     99 H99        24.8544   27.9920    2.2655 H         1 UNK         0.2993 
    100 H100       27.4030   27.3844    2.7689 H         1 UNK         0.0949 
    101 H101       26.6479   25.9769    4.7630 H         1 UNK         0.0767 
    102 H102       25.3363   26.9429    4.1257 H         1 UNK         0.0767 
    103 H103       25.4229   25.2266    3.7458 H         1 UNK         0.0767 
    104 H104       27.6154   24.8488    1.5474 H         1 UNK         0.3013 
    105 H105       27.0004   29.4632   -1.0990 H         1 UNK         0.3121 
    106 H106       26.5976   31.5225   -0.5857 H         1 UNK         0.0774 
    107 H107       28.1233   33.3850   -1.1028 H         1 UNK         0.0815 
    108 H108       29.4662   32.2828   -1.3444 H         1 UNK         0.0815 
    109 H109       28.0833   32.2426   -2.4361 H         1 UNK         0.0815 
    110 H110       29.8711   30.8474    0.6874 H         1 UNK         0.2987 
    111 H111       29.2305   32.0764    3.3115 H         1 UNK         0.0949 
    112 H112       31.7584   30.7505    2.1990 H         1 UNK         0.0806 
    113 H113       31.4919   32.4780    2.4095 H         1 UNK         0.0806 
    114 H114       31.6227   31.4316    3.8158 H         1 UNK         0.0806 
    115 H115       28.7413   30.8840    5.1071 H         1 UNK         0.3010 
    116 H116       28.2809   27.9639    4.8398 H         1 UNK         0.0829 
    117 H117       26.3964   29.3226    5.6826 H         1 UNK         0.0813 
    118 H118       27.0042   28.2700    6.9500 H         1 UNK         0.0813 
    119 H119       27.4032   29.9823    6.9707 H         1 UNK         0.0813 
    120 H120       30.1676   26.9599    5.1130 H         1 UNK         0.3038 
    121 H121       31.9928   26.0698    5.8943 H         1 UNK         0.0769 
    122 H122       30.9145   26.8790    8.6444 H         1 UNK         0.0811 
    123 H123       32.1255   25.6412    8.3437 H         1 UNK         0.0811 
    124 H124       30.4888   25.4224    7.7462 H         1 UNK         0.0811 
    125 H125       31.6897   29.3179    7.1865 H         1 UNK         0.3204 
    126 H126       34.1403   29.7425    8.3678 H         1 UNK         0.0748 
    127 H127       33.6355   32.1764    8.0251 H         1 UNK         0.0771 
    128 H128       32.4060   31.7585    6.8382 H         1 UNK         0.0771 
    129 H129       32.2065   31.2877    8.5256 H         1 UNK         0.0771 
    130 H130       33.6336   29.5500    4.9254 H         1 UNK         0.2980 
    131 H131       36.0977   30.8451    4.1439 H         1 UNK         0.0545 
    132 H132       35.5635   27.7127    5.6060 H         1 UNK         0.3459 
    133 H133       37.1071   27.0576    5.1098 H         1 UNK         0.3459 
    134 H134       35.5917   29.9452    1.8788 H         1 UNK         0.0616 
    135 H135       34.2876   30.8625    2.5617 H         1 UNK         0.0616 
    136 H136       34.8975   28.0324    0.4099 H         1 UNK         0.0634 
    137 H137       35.6024   27.2394    1.8011 H         1 UNK         0.0634 
@<TRIPOS>BOND
     1    1    2 1    
     2    1   72 1    
     3    1   73 1    
     4    1   74 1    
     5    2    3 2    
     6    2    4 am   BACKBONE|DICT|INTERRES
     7    4    5 1    
     8    4   75 1    
     9    5    6 1    
    10    5   35 1    
    11    5   76 1    
    12    6    7 1    
    13    6   77 1    
    14    6   78 1    
    15    7    8 1    
    16    8    9 1    
    17    8   79 1    
    18    8   80 1    
    19    9   10 ar   
    20    9   14 ar   
    21   10   11 ar   
    22   10   81 1    
    23   11   12 ar   
    24   11   71 1    
    25   12   13 ar   
    26   12   82 1    
    27   13   14 ar   
    28   13   15 1    
    29   14   83 1    
    30   15   16 1    
    31   15   84 1    
    32   15   85 1    
    33   16   17 1    
    34   17   18 1    
    35   17   86 1    
    36   17   87 1    
    37   18   19 1    
    38   18   37 1    
    39   18   88 1    
    40   19   20 am   BACKBONE|DICT|INTERRES
    41   19   89 1    
    42   20   21 2    
    43   20   22 1    
    44   22   23 1    
    45   22   24 1    
    46   22   90 1    
    47   23   91 1    
    48   23   92 1    
    49   23   93 1    
    50   24   25 am   BACKBONE|DICT|INTERRES
    51   24   94 1    
    52   25   26 2    
    53   25   27 1    
    54   27   28 1    
    55   27   29 1    
    56   27   95 1    
    57   28   96 1    
    58   28   97 1    
    59   28   98 1    
    60   29   30 am   BACKBONE|DICT|INTERRES
    61   29   99 1    
    62   30   31 2    
    63   30   32 1    
    64   32   33 1    
    65   32   34 1    
    66   32  100 1    
    67   33  101 1    
    68   33  102 1    
    69   33  103 1    
    70   34   35 am   BACKBONE|DICT|INTERRES
    71   34  104 1    
    72   35   36 2    
    73   37   38 2    
    74   37   39 am   BACKBONE|DICT|INTERRES
    75   39   40 1    
    76   39  105 1    
    77   40   41 1    
    78   40   42 1    
    79   40  106 1    
    80   41  107 1    
    81   41  108 1    
    82   41  109 1    
    83   42   43 2    
    84   42   44 am   BACKBONE|DICT|INTERRES
    85   44   45 1    
    86   44  110 1    
    87   45   46 1    
    88   45   47 1    
    89   45  111 1    
    90   46  112 1    
    91   46  113 1    
    92   46  114 1    
    93   47   48 2    
    94   47   49 am   BACKBONE|DICT|INTERRES
    95   49   50 1    
    96   49  115 1    
    97   50   51 1    
    98   50   52 1    
    99   50  116 1    
   100   51  117 1    
   101   51  118 1    
   102   51  119 1    
   103   52   53 2    
   104   52   54 am   BACKBONE|DICT|INTERRES
   105   54   55 1    
   106   54  120 1    
   107   55   56 1    
   108   55   57 1    
   109   55  121 1    
   110   56  122 1    
   111   56  123 1    
   112   56  124 1    
   113   57   58 2    
   114   57   59 am   BACKBONE|DICT|INTERRES
   115   59   60 1    
   116   59  125 1    
   117   60   61 1    
   118   60   62 1    
   119   60  126 1    
   120   61  127 1    
   121   61  128 1    
   122   61  129 1    
   123   62   63 2    
   124   62   64 am   BACKBONE|DICT|INTERRES
   125   64   65 1    
   126   64  130 1    
   127   65   66 1    
   128   65   69 1    
   129   65  131 1    
   130   66   67 am   BACKBONE|DICT|INTERRES
   131   66   68 2    
   132   67  132 1    
   133   67  133 1    
   134   69   70 1    
   135   69  134 1    
   136   69  135 1    
   137   70   71 1    
   138   71  136 1    
   139   71  137 1    
@<TRIPOS>SUBSTRUCTURE
     1 UNK         1 GROUP             0       ****    0 ROOT    
