@<TRIPOS>MOLECULE
3R136
137   139    1
SMALL
USER_CHARGES


@<TRIPOS>ATOM
      1 CA         28.3592   27.5468   -2.3473 C.3       0 UNK        -0.1979 
      2 C          28.4732   26.4039   -1.3522 C.2       0 UNK         0.4864 
      3 O          27.4994   26.1043   -0.6573 O.2       0 UNK        -0.5359 
      4 N          29.6409   25.7504   -1.2878 N.am      1 UNK        -0.4318 
      5 CA         30.0251   24.6802   -0.3499 C.3       1 UNK         0.0824 
      6 C6         31.5680   24.5098   -0.3167 C.3       12 UNK        -0.0944 
      7 S7         32.4152   25.9911    0.3236 S.3       12 UNK        -0.2672 
      8 C8         32.9217   25.4430    1.9851 C.3       12 UNK         0.0333 
      9 C9         31.7626   25.4115    2.9736 C.ar      12 UNK        -0.0807 
     10 C10        31.5354   26.4978    3.8260 C.ar      12 UNK        -0.0894 
     11 C11        30.5241   26.4430    4.7903 C.ar      12 UNK        -0.0804 
     12 C12        29.7176   25.3051    4.8740 C.ar      12 UNK        -0.0824 
     13 C13        29.8908   24.2400    3.9866 C.ar      12 UNK        -0.0762 
     14 C14        30.9361   24.2854    3.0608 C.ar      12 UNK        -0.0782 
     15 C15        28.9413   23.0485    4.0200 C.3       12 UNK         0.0230 
     16 S16        27.5400   23.2602    2.8655 S.3       12 UNK        -0.2608 
     17 C17        26.6358   24.6507    3.6293 C.3       12 UNK        -0.0989 
     18 CA         26.9691   25.9932    2.9145 C.3       5 UNK         0.0716 
     19 N          26.1339   26.2483    1.7347 N.am      5 UNK        -0.4135 
     20 C          24.8373   26.5956    1.7340 C.2       4 UNK         0.5031 
     21 O          24.1285   26.6305    2.7403 O.2       4 UNK        -0.5229 
     22 CA         24.2308   27.0014    0.3860 C.3       4 UNK         0.0329 
     23 CB         24.6946   28.4153   -0.0076 C.3       4 UNK        -0.2001 
     24 N          24.5908   26.0596   -0.6745 N.am      4 UNK        -0.4303 
     25 C          23.7090   25.3817   -1.4208 C.2       3 UNK         0.5044 
     26 O          22.4867   25.4577   -1.2867 O.2       3 UNK        -0.5152 
     27 CA         24.2787   24.4738   -2.5235 C.3       3 UNK         0.0319 
     28 CB         24.4815   25.2734   -3.8210 C.3       3 UNK        -0.2001 
     29 N          25.5378   23.8223   -2.1593 N.am      3 UNK        -0.4354 
     30 C          25.6583   22.8388   -1.2546 C.2       2 UNK         0.4964 
     31 O          24.7225   22.3839   -0.5973 O.2       2 UNK        -0.5047 
     32 CA         27.0692   22.2769   -1.0572 C.3       2 UNK         0.0288 
     33 CB         27.4562   21.3661   -2.2419 C.3       2 UNK        -0.2113 
     34 N          28.0025   23.3892   -0.8920 N.am      2 UNK        -0.4145 
     35 C          29.2987   23.3283   -0.5800 C.2       1 UNK         0.5006 
     36 O          29.9132   22.2671   -0.4544 O.2       1 UNK        -0.5103 
     37 C          27.0143   27.2282    3.8455 C.2       5 UNK         0.5055 
     38 O          26.7911   27.1238    5.0529 O.2       5 UNK        -0.5220 
     39 N          27.3160   28.3855    3.2443 N.am      6 UNK        -0.4450 
     40 CA         27.4888   29.6774    3.9089 C.3       6 UNK         0.0367 
     41 CB         26.1215   30.3701    4.0736 C.3       6 UNK        -0.1929 
     42 C          28.5025   30.5288    3.1248 C.2       6 UNK         0.5070 
     43 O          28.3400   31.7440    3.0170 O.2       6 UNK        -0.5237 
     44 N          29.5262   29.8736    2.5591 N.am      7 UNK        -0.4739 
     45 CA         30.4840   30.4255    1.5924 C.3       7 UNK         0.0276 
     46 CB         31.0668   29.2560    0.7816 C.3       7 UNK        -0.1927 
     47 C          31.5821   31.3315    2.1950 C.2       7 UNK         0.5013 
     48 O          32.7214   31.3039    1.7230 O.2       7 UNK        -0.5193 
     49 N          31.2196   32.1336    3.2059 N.am      8 UNK        -0.4253 
     50 CA         32.0257   33.1653    3.8702 C.3       8 UNK         0.0242 
     51 CB         32.0668   34.4345    2.9885 C.3       8 UNK        -0.2000 
     52 C          33.4168   32.6568    4.3015 C.2       8 UNK         0.4948 
     53 O          33.4949   31.7697    5.1517 O.2       8 UNK        -0.5275 
     54 N          34.4827   33.2005    3.6968 N.am      9 UNK        -0.4246 
     55 CA         35.8844   32.8697    3.9677 C.3       9 UNK         0.0261 
     56 CB         36.7906   33.8006    3.1459 C.3       9 UNK        -0.1959 
     57 C          36.2615   31.3980    3.7174 C.2       9 UNK         0.5033 
     58 O          37.1917   30.9091    4.3609 O.2       9 UNK        -0.5390 
     59 N          35.5347   30.7014    2.8287 N.am      10 UNK        -0.4215 
     60 CA         35.7312   29.2713    2.5631 C.3       10 UNK         0.0240 
     61 CB         35.0129   28.8799    1.2625 C.3       10 UNK        -0.1982 
     62 C          35.2794   28.3693    3.7273 C.2       10 UNK         0.4970 
     63 O          35.6998   27.2136    3.7823 O.2       10 UNK        -0.4916 
     64 N          34.4505   28.9033    4.6350 N.am      11 UNK        -0.4279 
     65 CA         34.0098   28.2382    5.8680 C.3       11 UNK         0.1003 
     66 C          35.1061   28.1415    6.9719 C.2       11 UNK         0.5709 
     67 N          36.2432   28.8187    6.8474 N.am      11 UNK        -0.7358 
     68 O          34.9285   27.4285    7.9563 O.2       11 UNK        -0.4999 
     69 C69        32.7038   28.8942    6.3951 C.3       12 UNK        -0.0954 
     70 S70        31.5071   27.6948    7.0678 S.3       12 UNK        -0.2268 
     71 C71        30.2737   27.6131    5.7310 C.3       12 UNK         0.0203 
     72 H72        28.1249   28.4736   -1.8245 H         1 UNK         0.0888 
     73 H73        29.2836   27.6958   -2.9050 H         1 UNK         0.0888 
     74 H74        27.5598   27.3457   -3.0596 H         1 UNK         0.0888 
     75 H75        30.3856   26.0430   -1.9042 H         1 UNK         0.3017 
     76 H76        29.7056   25.0047    0.6423 H         1 UNK         0.0873 
     77 H77        31.9459   24.3053   -1.3200 H         1 UNK         0.0745 
     78 H78        31.8729   23.6540    0.2859 H         1 UNK         0.0745 
     79 H79        33.3959   24.4623    1.9255 H         1 UNK         0.0705 
     80 H80        33.6933   26.1223    2.3465 H         1 UNK         0.0705 
     81 H81        32.1601   27.3767    3.7541 H         1 UNK         0.1334 
     82 H82        28.9289   25.2653    5.6127 H         1 UNK         0.1417 
     83 H83        31.0945   23.4438    2.4016 H         1 UNK         0.1562 
     84 H84        28.5632   22.8880    5.0309 H         1 UNK         0.0748 
     85 H85        29.4813   22.1391    3.7521 H         1 UNK         0.0748 
     86 H86        26.8805   24.6662    4.6913 H         1 UNK         0.0940 
     87 H87        25.5661   24.4412    3.5905 H         1 UNK         0.0940 
     88 H88        27.9885   25.9230    2.5311 H         1 UNK         0.0703 
     89 H89        26.6308   26.2348    0.8452 H         1 UNK         0.3081 
     90 H90        23.1475   27.0315    0.5212 H         1 UNK         0.0719 
     91 H91        24.1914   28.7551   -0.9130 H         1 UNK         0.0809 
     92 H92        25.7691   28.4570   -0.1898 H         1 UNK         0.0809 
     93 H93        24.4665   29.1360    0.7791 H         1 UNK         0.0809 
     94 H94        25.5819   25.9322   -0.8499 H         1 UNK         0.2990 
     95 H95        23.5411   23.6923   -2.7192 H         1 UNK         0.0690 
     96 H96        24.8020   24.6285   -4.6395 H         1 UNK         0.0788 
     97 H97        25.2272   26.0603   -3.6998 H         1 UNK         0.0788 
     98 H98        23.5519   25.7515   -4.1333 H         1 UNK         0.0788 
     99 H99        26.3561   24.1009   -2.6807 H         1 UNK         0.2993 
    100 H100       27.0728   21.6894   -0.1365 H         1 UNK         0.0949 
    101 H101       28.3898   20.8362   -2.0552 H         1 UNK         0.0767 
    102 H102       26.6921   20.6071   -2.4159 H         1 UNK         0.0767 
    103 H103       27.5730   21.9312   -3.1672 H         1 UNK         0.0767 
    104 H104       27.5920   24.3204   -0.8885 H         1 UNK         0.3013 
    105 H105       27.4627   28.3882    2.2441 H         1 UNK         0.3121 
    106 H106       27.9166   29.5190    4.9009 H         1 UNK         0.0774 
    107 H107       26.2222   31.3191    4.6017 H         1 UNK         0.0815 
    108 H108       25.6591   30.5784    3.1081 H         1 UNK         0.0815 
    109 H109       25.4308   29.7537    4.6491 H         1 UNK         0.0815 
    110 H110       29.6233   28.8883    2.7560 H         1 UNK         0.2987 
    111 H111       29.9290   31.0583    0.8962 H         1 UNK         0.0949 
    112 H112       31.6229   28.5749    1.4245 H         1 UNK         0.0806 
    113 H113       30.2839   28.6822    0.2855 H         1 UNK         0.0806 
    114 H114       31.7468   29.6052    0.0034 H         1 UNK         0.0806 
    115 H115       30.2448   32.0850    3.4845 H         1 UNK         0.3010 
    116 H116       31.5018   33.4208    4.7925 H         1 UNK         0.0829 
    117 H117       31.0600   34.8092    2.8027 H         1 UNK         0.0813 
    118 H118       32.6170   35.2412    3.4753 H         1 UNK         0.0813 
    119 H119       32.5273   34.2479    2.0174 H         1 UNK         0.0813 
    120 H120       34.3143   33.9003    2.9887 H         1 UNK         0.3038 
    121 H121       36.0629   33.0682    5.0266 H         1 UNK         0.0769 
    122 H122       37.8437   33.5987    3.3477 H         1 UNK         0.0811 
    123 H123       36.6123   34.8480    3.3906 H         1 UNK         0.0811 
    124 H124       36.6344   33.6730    2.0739 H         1 UNK         0.0811 
    125 H125       34.7451   31.1479    2.3713 H         1 UNK         0.3204 
    126 H126       36.8001   29.1005    2.4187 H         1 UNK         0.0748 
    127 H127       35.2262   27.8441    0.9948 H         1 UNK         0.0771 
    128 H128       33.9324   28.9710    1.3575 H         1 UNK         0.0771 
    129 H129       35.3307   29.5029    0.4264 H         1 UNK         0.0771 
    130 H130       34.1815   29.8769    4.5478 H         1 UNK         0.2980 
    131 H131       33.7849   27.2062    5.5930 H         1 UNK         0.0545 
    132 H132       36.4128   29.4055    6.0430 H         1 UNK         0.3459 
    133 H133       36.9429   28.7397    7.5681 H         1 UNK         0.3459 
    134 H134       32.2094   29.4536    5.6003 H         1 UNK         0.0616 
    135 H135       32.9167   29.6410    7.1625 H         1 UNK         0.0616 
    136 H136       29.2901   27.5185    6.1930 H         1 UNK         0.0634 
    137 H137       30.2435   28.5452    5.1675 H         1 UNK         0.0634 
@<TRIPOS>BOND
     1    1    2 1    
     2    1   72 1    
     3    1   73 1    
     4    1   74 1    
     5    2    3 2    
     6    2    4 am   BACKBONE|DICT|INTERRES
     7    4    5 1    
     8    4   75 1    
     9    5    6 1    
    10    5   35 1    
    11    5   76 1    
    12    6    7 1    
    13    6   77 1    
    14    6   78 1    
    15    7    8 1    
    16    8    9 1    
    17    8   79 1    
    18    8   80 1    
    19    9   10 ar   
    20    9   14 ar   
    21   10   11 ar   
    22   10   81 1    
    23   11   12 ar   
    24   11   71 1    
    25   12   13 ar   
    26   12   82 1    
    27   13   14 ar   
    28   13   15 1    
    29   14   83 1    
    30   15   16 1    
    31   15   84 1    
    32   15   85 1    
    33   16   17 1    
    34   17   18 1    
    35   17   86 1    
    36   17   87 1    
    37   18   19 1    
    38   18   37 1    
    39   18   88 1    
    40   19   20 am   BACKBONE|DICT|INTERRES
    41   19   89 1    
    42   20   21 2    
    43   20   22 1    
    44   22   23 1    
    45   22   24 1    
    46   22   90 1    
    47   23   91 1    
    48   23   92 1    
    49   23   93 1    
    50   24   25 am   BACKBONE|DICT|INTERRES
    51   24   94 1    
    52   25   26 2    
    53   25   27 1    
    54   27   28 1    
    55   27   29 1    
    56   27   95 1    
    57   28   96 1    
    58   28   97 1    
    59   28   98 1    
    60   29   30 am   BACKBONE|DICT|INTERRES
    61   29   99 1    
    62   30   31 2    
    63   30   32 1    
    64   32   33 1    
    65   32   34 1    
    66   32  100 1    
    67   33  101 1    
    68   33  102 1    
    69   33  103 1    
    70   34   35 am   BACKBONE|DICT|INTERRES
    71   34  104 1    
    72   35   36 2    
    73   37   38 2    
    74   37   39 am   BACKBONE|DICT|INTERRES
    75   39   40 1    
    76   39  105 1    
    77   40   41 1    
    78   40   42 1    
    79   40  106 1    
    80   41  107 1    
    81   41  108 1    
    82   41  109 1    
    83   42   43 2    
    84   42   44 am   BACKBONE|DICT|INTERRES
    85   44   45 1    
    86   44  110 1    
    87   45   46 1    
    88   45   47 1    
    89   45  111 1    
    90   46  112 1    
    91   46  113 1    
    92   46  114 1    
    93   47   48 2    
    94   47   49 am   BACKBONE|DICT|INTERRES
    95   49   50 1    
    96   49  115 1    
    97   50   51 1    
    98   50   52 1    
    99   50  116 1    
   100   51  117 1    
   101   51  118 1    
   102   51  119 1    
   103   52   53 2    
   104   52   54 am   BACKBONE|DICT|INTERRES
   105   54   55 1    
   106   54  120 1    
   107   55   56 1    
   108   55   57 1    
   109   55  121 1    
   110   56  122 1    
   111   56  123 1    
   112   56  124 1    
   113   57   58 2    
   114   57   59 am   BACKBONE|DICT|INTERRES
   115   59   60 1    
   116   59  125 1    
   117   60   61 1    
   118   60   62 1    
   119   60  126 1    
   120   61  127 1    
   121   61  128 1    
   122   61  129 1    
   123   62   63 2    
   124   62   64 am   BACKBONE|DICT|INTERRES
   125   64   65 1    
   126   64  130 1    
   127   65   66 1    
   128   65   69 1    
   129   65  131 1    
   130   66   67 am   BACKBONE|DICT|INTERRES
   131   66   68 2    
   132   67  132 1    
   133   67  133 1    
   134   69   70 1    
   135   69  134 1    
   136   69  135 1    
   137   70   71 1    
   138   71  136 1    
   139   71  137 1    
@<TRIPOS>SUBSTRUCTURE
     1 UNK         1 GROUP             0       ****    0 ROOT    
