@<TRIPOS>MOLECULE
3R136
137   139    1
SMALL
USER_CHARGES


@<TRIPOS>ATOM
      1 CA         30.9191   23.3299    5.2469 C.3       0 UNK        -0.1979 
      2 C          29.6124   23.2536    4.4707 C.2       0 UNK         0.4864 
      3 O          28.6539   22.6428    4.9459 O.2       0 UNK        -0.5359 
      4 N          29.5675   23.8662    3.2812 N.am      1 UNK        -0.4318 
      5 CA         28.3658   23.9917    2.4531 C.3       1 UNK         0.0824 
      6 C6         28.7255   24.3136    0.9807 C.3       12 UNK        -0.0944 
      7 S7         29.0804   22.8173   -0.0046 S.3       12 UNK        -0.2672 
      8 C8         30.7640   22.3316    0.5075 C.3       12 UNK         0.0333 
      9 C9         31.7796   23.4581    0.3759 C.ar      12 UNK        -0.0807 
     10 C10        32.4798   23.9009    1.4993 C.ar      12 UNK        -0.0894 
     11 C11        33.3843   24.9590    1.3994 C.ar      12 UNK        -0.0804 
     12 C12        33.6091   25.5579    0.1561 C.ar      12 UNK        -0.0824 
     13 C13        32.9227   25.1244   -0.9839 C.ar      12 UNK        -0.0762 
     14 C14        32.0181   24.0591   -0.8632 C.ar      12 UNK        -0.0782 
     15 C15        33.1912   25.8335   -2.3143 C.3       12 UNK         0.0230 
     16 S16        31.8873   25.6071   -3.5747 S.3       12 UNK        -0.2608 
     17 C17        31.7186   27.2801   -4.2937 C.3       12 UNK        -0.0989 
     18 CA         30.5891   28.1364   -3.6572 C.3       5 UNK         0.0716 
     19 N          29.3679   27.3530   -3.4230 N.am      5 UNK        -0.4135 
     20 C          28.1686   27.8450   -3.0863 C.2       4 UNK         0.5031 
     21 O          27.9052   29.0490   -3.0785 O.2       4 UNK        -0.5229 
     22 CA         27.0954   26.8393   -2.6396 C.3       4 UNK         0.0329 
     23 CB         27.5899   25.3804   -2.5324 C.3       4 UNK        -0.2001 
     24 N          26.5890   27.2783   -1.3396 N.am      4 UNK        -0.4303 
     25 C          25.2984   27.3845   -1.0143 C.2       3 UNK         0.5044 
     26 O          24.3729   26.9991   -1.7317 O.2       3 UNK        -0.5152 
     27 CA         24.9933   27.9872    0.3621 C.3       3 UNK         0.0319 
     28 CB         23.6258   28.7059    0.3855 C.3       3 UNK        -0.2001 
     29 N          25.0451   26.9142    1.3513 N.am      3 UNK        -0.4354 
     30 C          25.0172   27.0694    2.6812 C.2       2 UNK         0.4964 
     31 O          24.9270   28.1558    3.2524 O.2       2 UNK        -0.5047 
     32 CA         25.1300   25.7885    3.5235 C.3       2 UNK         0.0288 
     33 CB         23.7691   25.0799    3.6239 C.3       2 UNK        -0.2113 
     34 N          26.1362   24.8551    3.0086 N.am      2 UNK        -0.4145 
     35 C          27.4563   25.0837    3.0460 C.2       1 UNK         0.5006 
     36 O          27.9594   26.1091    3.5105 O.2       1 UNK        -0.5103 
     37 C          31.0767   28.8843   -2.3936 C.2       5 UNK         0.5055 
     38 O          31.7824   29.8861   -2.5205 O.2       5 UNK        -0.5220 
     39 N          30.6720   28.4075   -1.2119 N.am      6 UNK        -0.4450 
     40 CA         30.7844   29.0781    0.0757 C.3       6 UNK         0.0367 
     41 CB         31.9657   28.4868    0.8575 C.3       6 UNK        -0.1929 
     42 C          29.4647   28.8587    0.8265 C.2       6 UNK         0.5070 
     43 O          28.6814   27.9801    0.4498 O.2       6 UNK        -0.5237 
     44 N          29.2480   29.6581    1.8730 N.am      7 UNK        -0.4739 
     45 CA         28.0978   29.5740    2.7627 C.3       7 UNK         0.0276 
     46 CB         27.1420   30.7453    2.4718 C.3       7 UNK        -0.1927 
     47 C          28.6015   29.6033    4.2098 C.2       7 UNK         0.5013 
     48 O          29.0156   30.6655    4.6820 O.2       7 UNK        -0.5193 
     49 N          28.5674   28.4386    4.8713 N.am      8 UNK        -0.4253 
     50 CA         28.8400   28.1914    6.2910 C.3       8 UNK         0.0242 
     51 CB         27.6138   28.6116    7.1320 C.3       8 UNK        -0.2000 
     52 C          30.1648   28.8118    6.7731 C.2       8 UNK         0.4948 
     53 O          31.2310   28.2830    6.4568 O.2       8 UNK        -0.5275 
     54 N          30.0757   29.9341    7.5024 N.am      9 UNK        -0.4246 
     55 CA         31.1951   30.7024    8.0553 C.3       9 UNK         0.0261 
     56 CB         30.6416   31.8831    8.8692 C.3       9 UNK        -0.1959 
     57 C          32.2149   31.2003    7.0146 C.2       9 UNK         0.5033 
     58 O          33.3674   31.4354    7.3818 O.2       9 UNK        -0.5390 
     59 N          31.8092   31.3111    5.7395 N.am      10 UNK        -0.4215 
     60 CA         32.6913   31.6339    4.6122 C.3       10 UNK         0.0240 
     61 CB         31.8504   31.8163    3.3412 C.3       10 UNK        -0.1982 
     62 C          33.8115   30.6003    4.3734 C.2       10 UNK         0.4970 
     63 O          34.8269   30.9588    3.7757 O.2       10 UNK        -0.4916 
     64 N          33.6324   29.3614    4.8555 N.am      11 UNK        -0.4279 
     65 CA         34.6817   28.3309    4.8966 C.3       11 UNK         0.1003 
     66 C          35.7844   28.5852    5.9684 C.2       11 UNK         0.5709 
     67 N          35.6369   29.5384    6.8829 N.am      11 UNK        -0.7358 
     68 O          36.8079   27.9051    5.9624 O.2       11 UNK        -0.4999 
     69 C69        34.0876   26.9060    5.0458 C.3       12 UNK        -0.0954 
     70 S70        32.9786   26.4606    3.6713 S.3       12 UNK        -0.2268 
     71 C71        34.0980   25.4606    2.6438 C.3       12 UNK         0.0203 
     72 H72        30.7365   23.7123    6.2507 H         1 UNK         0.0888 
     73 H73        31.3631   22.3388    5.3342 H         1 UNK         0.0888 
     74 H74        31.6429   23.9868    4.7666 H         1 UNK         0.0888 
     75 H75        30.3628   24.4025    2.9669 H         1 UNK         0.3017 
     76 H76        27.8198   23.0460    2.4872 H         1 UNK         0.0873 
     77 H77        29.5522   25.0235    0.9130 H         1 UNK         0.0745 
     78 H78        27.8882   24.8027    0.4785 H         1 UNK         0.0745 
     79 H79        30.7247   21.9568    1.5311 H         1 UNK         0.0705 
     80 H80        31.0876   21.4922   -0.1093 H         1 UNK         0.0705 
     81 H81        32.3164   23.4309    2.4585 H         1 UNK         0.1334 
     82 H82        34.3088   26.3791    0.0797 H         1 UNK         0.1417 
     83 H83        31.4767   23.6938   -1.7240 H         1 UNK         0.1562 
     84 H84        34.1365   25.4735   -2.7223 H         1 UNK         0.0748 
     85 H85        33.3239   26.8993   -2.1236 H         1 UNK         0.0748 
     86 H86        31.4928   27.1417   -5.3522 H         1 UNK         0.0940 
     87 H87        32.6798   27.7986   -4.2782 H         1 UNK         0.0940 
     88 H88        30.3290   28.9156   -4.3770 H         1 UNK         0.0703 
     89 H89        29.5001   26.3512   -3.4182 H         1 UNK         0.3081 
     90 H90        26.3028   26.8819   -3.3895 H         1 UNK         0.0719 
     91 H91        27.8963   24.9912   -3.5042 H         1 UNK         0.0809 
     92 H92        26.7983   24.7256   -2.1674 H         1 UNK         0.0809 
     93 H93        28.4345   25.2825   -1.8495 H         1 UNK         0.0809 
     94 H94        27.2931   27.6136   -0.6814 H         1 UNK         0.2990 
     95 H95        25.7735   28.7143    0.5938 H         1 UNK         0.0690 
     96 H96        23.4724   29.2525    1.3156 H         1 UNK         0.0788 
     97 H97        22.7992   28.0038    0.2702 H         1 UNK         0.0788 
     98 H98        23.5540   29.4323   -0.4250 H         1 UNK         0.0788 
     99 H99        25.1291   25.9809    0.9728 H         1 UNK         0.2993 
    100 H100       25.4318   26.0859    4.5307 H         1 UNK         0.0949 
    101 H101       23.8181   24.2208    4.2934 H         1 UNK         0.0767 
    102 H102       23.0081   25.7539    4.0202 H         1 UNK         0.0767 
    103 H103       23.4194   24.7294    2.6520 H         1 UNK         0.0767 
    104 H104       25.7969   23.9864    2.6205 H         1 UNK         0.3013 
    105 H105       30.0499   27.6103   -1.1962 H         1 UNK         0.3121 
    106 H106       30.9309   30.1509   -0.0685 H         1 UNK         0.0774 
    107 H107       32.1143   28.9965    1.8092 H         1 UNK         0.0815 
    108 H108       31.7957   27.4334    1.0792 H         1 UNK         0.0815 
    109 H109       32.8965   28.5697    0.2969 H         1 UNK         0.0815 
    110 H110       29.9443   30.3425    2.1304 H         1 UNK         0.2987 
    111 H111       27.5562   28.6401    2.6012 H         1 UNK         0.0949 
    112 H112       27.6200   31.7121    2.6349 H         1 UNK         0.0806 
    113 H113       26.7860   30.7214    1.4424 H         1 UNK         0.0806 
    114 H114       26.2659   30.6986    3.1198 H         1 UNK         0.0806 
    115 H115       28.3023   27.6056    4.3425 H         1 UNK         0.3010 
    116 H116       28.9575   27.1116    6.3957 H         1 UNK         0.0829 
    117 H117       26.7352   28.0309    6.8501 H         1 UNK         0.0813 
    118 H118       27.7821   28.4357    8.1956 H         1 UNK         0.0813 
    119 H119       27.3616   29.6645    7.0003 H         1 UNK         0.0813 
    120 H120       29.1523   30.3066    7.6698 H         1 UNK         0.3038 
    121 H121       31.7340   30.0399    8.7356 H         1 UNK         0.0769 
    122 H122       30.0620   32.5656    8.2462 H         1 UNK         0.0811 
    123 H123       31.4504   32.4606    9.3196 H         1 UNK         0.0811 
    124 H124       30.0006   31.5411    9.6820 H         1 UNK         0.0811 
    125 H125       30.8409   31.0952    5.5170 H         1 UNK         0.3204 
    126 H126       33.1751   32.5860    4.8396 H         1 UNK         0.0748 
    127 H127       31.0863   32.5829    3.4736 H         1 UNK         0.0771 
    128 H128       32.4729   32.1172    2.4973 H         1 UNK         0.0771 
    129 H129       31.3546   30.8879    3.0689 H         1 UNK         0.0771 
    130 H130       32.7698   29.1270    5.3356 H         1 UNK         0.2980 
    131 H131       35.2005   28.3603    3.9365 H         1 UNK         0.0545 
    132 H132       34.8089   30.1233    6.9118 H         1 UNK         0.3459 
    133 H133       36.3698   29.6820    7.5589 H         1 UNK         0.3459 
    134 H134       34.8791   26.1572    5.1115 H         1 UNK         0.0616 
    135 H135       33.5229   26.8274    5.9763 H         1 UNK         0.0616 
    136 H136       34.4653   24.6120    3.2229 H         1 UNK         0.0634 
    137 H137       34.9701   26.0583    2.3742 H         1 UNK         0.0634 
@<TRIPOS>BOND
     1    1    2 1    
     2    1   72 1    
     3    1   73 1    
     4    1   74 1    
     5    2    3 2    
     6    2    4 am   BACKBONE|DICT|INTERRES
     7    4    5 1    
     8    4   75 1    
     9    5    6 1    
    10    5   35 1    
    11    5   76 1    
    12    6    7 1    
    13    6   77 1    
    14    6   78 1    
    15    7    8 1    
    16    8    9 1    
    17    8   79 1    
    18    8   80 1    
    19    9   10 ar   
    20    9   14 ar   
    21   10   11 ar   
    22   10   81 1    
    23   11   12 ar   
    24   11   71 1    
    25   12   13 ar   
    26   12   82 1    
    27   13   14 ar   
    28   13   15 1    
    29   14   83 1    
    30   15   16 1    
    31   15   84 1    
    32   15   85 1    
    33   16   17 1    
    34   17   18 1    
    35   17   86 1    
    36   17   87 1    
    37   18   19 1    
    38   18   37 1    
    39   18   88 1    
    40   19   20 am   BACKBONE|DICT|INTERRES
    41   19   89 1    
    42   20   21 2    
    43   20   22 1    
    44   22   23 1    
    45   22   24 1    
    46   22   90 1    
    47   23   91 1    
    48   23   92 1    
    49   23   93 1    
    50   24   25 am   BACKBONE|DICT|INTERRES
    51   24   94 1    
    52   25   26 2    
    53   25   27 1    
    54   27   28 1    
    55   27   29 1    
    56   27   95 1    
    57   28   96 1    
    58   28   97 1    
    59   28   98 1    
    60   29   30 am   BACKBONE|DICT|INTERRES
    61   29   99 1    
    62   30   31 2    
    63   30   32 1    
    64   32   33 1    
    65   32   34 1    
    66   32  100 1    
    67   33  101 1    
    68   33  102 1    
    69   33  103 1    
    70   34   35 am   BACKBONE|DICT|INTERRES
    71   34  104 1    
    72   35   36 2    
    73   37   38 2    
    74   37   39 am   BACKBONE|DICT|INTERRES
    75   39   40 1    
    76   39  105 1    
    77   40   41 1    
    78   40   42 1    
    79   40  106 1    
    80   41  107 1    
    81   41  108 1    
    82   41  109 1    
    83   42   43 2    
    84   42   44 am   BACKBONE|DICT|INTERRES
    85   44   45 1    
    86   44  110 1    
    87   45   46 1    
    88   45   47 1    
    89   45  111 1    
    90   46  112 1    
    91   46  113 1    
    92   46  114 1    
    93   47   48 2    
    94   47   49 am   BACKBONE|DICT|INTERRES
    95   49   50 1    
    96   49  115 1    
    97   50   51 1    
    98   50   52 1    
    99   50  116 1    
   100   51  117 1    
   101   51  118 1    
   102   51  119 1    
   103   52   53 2    
   104   52   54 am   BACKBONE|DICT|INTERRES
   105   54   55 1    
   106   54  120 1    
   107   55   56 1    
   108   55   57 1    
   109   55  121 1    
   110   56  122 1    
   111   56  123 1    
   112   56  124 1    
   113   57   58 2    
   114   57   59 am   BACKBONE|DICT|INTERRES
   115   59   60 1    
   116   59  125 1    
   117   60   61 1    
   118   60   62 1    
   119   60  126 1    
   120   61  127 1    
   121   61  128 1    
   122   61  129 1    
   123   62   63 2    
   124   62   64 am   BACKBONE|DICT|INTERRES
   125   64   65 1    
   126   64  130 1    
   127   65   66 1    
   128   65   69 1    
   129   65  131 1    
   130   66   67 am   BACKBONE|DICT|INTERRES
   131   66   68 2    
   132   67  132 1    
   133   67  133 1    
   134   69   70 1    
   135   69  134 1    
   136   69  135 1    
   137   70   71 1    
   138   71  136 1    
   139   71  137 1    
@<TRIPOS>SUBSTRUCTURE
     1 UNK         1 GROUP             0       ****    0 ROOT    
