@<TRIPOS>MOLECULE
3R136
137   139    1
SMALL
USER_CHARGES


@<TRIPOS>ATOM
      1 CA         28.7247   29.3946   -3.5959 C.3       0 UNK        -0.1979 
      2 C          27.9271   28.4707   -2.6879 C.2       0 UNK         0.4864 
      3 O          26.7130   28.6353   -2.5656 O.2       0 UNK        -0.5359 
      4 N          28.6037   27.5068   -2.0481 N.am      1 UNK        -0.4318 
      5 CA         28.0168   26.5302   -1.1202 C.3       1 UNK         0.0824 
      6 C6         29.0986   25.7286   -0.3509 C.3       12 UNK        -0.0944 
      7 S7         30.3300   26.7981    0.4619 S.3       12 UNK        -0.2672 
      8 C8         31.2764   25.5901    1.4435 C.3       12 UNK         0.0333 
      9 C9         30.9795   25.7501    2.9252 C.ar      12 UNK        -0.0807 
     10 C10        31.5009   26.8484    3.6135 C.ar      12 UNK        -0.0894 
     11 C11        31.1963   27.0557    4.9602 C.ar      12 UNK        -0.0804 
     12 C12        30.3717   26.1428    5.6231 C.ar      12 UNK        -0.0824 
     13 C13        29.8631   25.0242    4.9547 C.ar      12 UNK        -0.0762 
     14 C14        30.1772   24.8278    3.6045 C.ar      12 UNK        -0.0782 
     15 C15        28.9707   24.0418    5.7061 C.3       12 UNK         0.0230 
     16 S16        27.3649   23.7358    4.8955 S.3       12 UNK        -0.2608 
     17 C17        26.7544   25.4184    4.5307 C.3       12 UNK        -0.0989 
     18 CA         26.6767   25.6777    3.0032 C.3       5 UNK         0.0716 
     19 N          25.6293   24.8785    2.3715 N.am      5 UNK        -0.4135 
     20 C          25.8011   23.7887    1.6171 C.2       4 UNK         0.5031 
     21 O          26.9009   23.2861    1.3754 O.2       4 UNK        -0.5229 
     22 CA         24.5284   23.1326    1.0503 C.3       4 UNK         0.0329 
     23 CB         23.2906   24.0555    1.0494 C.3       4 UNK        -0.2001 
     24 N          24.7753   22.6852   -0.3190 N.am      4 UNK        -0.4303 
     25 C          24.6649   21.4243   -0.7588 C.2       3 UNK         0.5044 
     26 O          24.3588   20.4761   -0.0336 O.2       3 UNK        -0.5152 
     27 CA         24.8949   21.1569   -2.2614 C.3       3 UNK         0.0319 
     28 CB         23.6292   20.5652   -2.9072 C.3       3 UNK        -0.2001 
     29 N          25.2821   22.3526   -3.0138 N.am      3 UNK        -0.4354 
     30 C          26.5333   22.8115   -3.1349 C.2       2 UNK         0.4964 
     31 O          27.5201   22.2389   -2.6700 O.2       2 UNK        -0.5047 
     32 CA         26.7273   24.1465   -3.8826 C.3       2 UNK         0.0288 
     33 CB         25.4269   24.7596   -4.4547 C.3       2 UNK        -0.2113 
     34 N          27.4275   25.1234   -3.0420 N.am      2 UNK        -0.4145 
     35 C          27.0473   25.5643   -1.8308 C.2       1 UNK         0.5006 
     36 O          25.9916   25.2456   -1.2807 O.2       1 UNK        -0.5103 
     37 C          26.3605   27.1522    2.7093 C.2       5 UNK         0.5055 
     38 O          25.1884   27.5026    2.5412 O.2       5 UNK        -0.5220 
     39 N          27.3988   27.9911    2.6721 N.am      6 UNK        -0.4450 
     40 CA         27.3147   29.4334    2.4593 C.3       6 UNK         0.0367 
     41 CB         27.3104   29.7379    0.9498 C.3       6 UNK        -0.1929 
     42 C          28.5144   30.0923    3.1471 C.2       6 UNK         0.5070 
     43 O          29.4813   29.4024    3.4728 O.2       6 UNK        -0.5237 
     44 N          28.4480   31.4146    3.3451 N.am      7 UNK        -0.4739 
     45 CA         29.5657   32.2154    3.8515 C.3       7 UNK         0.0276 
     46 CB         29.0689   33.6264    4.2068 C.3       7 UNK        -0.1927 
     47 C          30.6970   32.2743    2.8108 C.2       7 UNK         0.5013 
     48 O          30.4357   32.6167    1.6545 O.2       7 UNK        -0.5193 
     49 N          31.9182   31.9347    3.2320 N.am      8 UNK        -0.4253 
     50 CA         33.1022   31.8348    2.3857 C.3       8 UNK         0.0242 
     51 CB         33.0602   30.5169    1.5846 C.3       8 UNK        -0.2000 
     52 C          34.3495   31.8860    3.2713 C.2       8 UNK         0.4948 
     53 O          34.2542   31.6659    4.4835 O.2       8 UNK        -0.5275 
     54 N          35.5106   32.1073    2.6393 N.am      9 UNK        -0.4246 
     55 CA         36.8384   32.1588    3.2690 C.3       9 UNK         0.0261 
     56 CB         37.8807   32.5549    2.2099 C.3       9 UNK        -0.1959 
     57 C          37.2675   30.8636    3.9886 C.2       9 UNK         0.5033 
     58 O          38.1807   30.9104    4.8135 O.2       9 UNK        -0.5390 
     59 N          36.5907   29.7449    3.6908 N.am      10 UNK        -0.4215 
     60 CA         36.6896   28.4746    4.4118 C.3       10 UNK         0.0240 
     61 CB         35.8677   27.4085    3.6674 C.3       10 UNK        -0.1982 
     62 C          36.2311   28.5686    5.8805 C.2       10 UNK         0.4970 
     63 O          36.7498   27.8195    6.7095 O.2       10 UNK        -0.4916 
     64 N          35.2875   29.4751    6.1709 N.am      11 UNK        -0.4279 
     65 CA         34.7823   29.7619    7.5219 C.3       11 UNK         0.1003 
     66 C          35.1817   31.1829    7.9995 C.2       11 UNK         0.5709 
     67 N          35.2585   32.1759    7.1205 N.am      11 UNK        -0.7358 
     68 O          35.4347   31.3854    9.1847 O.2       11 UNK        -0.4999 
     69 C69        33.2473   29.5718    7.6274 C.3       12 UNK        -0.0954 
     70 S70        32.7058   27.8993    7.1398 S.3       12 UNK        -0.2268 
     71 C71        31.7077   28.2996    5.6730 C.3       12 UNK         0.0203 
     72 H72        29.7846   29.1409   -3.6073 H         1 UNK         0.0888 
     73 H73        28.3497   29.3323   -4.6171 H         1 UNK         0.0888 
     74 H74        28.6272   30.4263   -3.2588 H         1 UNK         0.0888 
     75 H75        29.6059   27.4460   -2.1607 H         1 UNK         0.3017 
     76 H76        27.4289   27.0877   -0.3886 H         1 UNK         0.0873 
     77 H77        28.6343   25.0977    0.4080 H         1 UNK         0.0745 
     78 H78        29.6330   25.0545   -1.0235 H         1 UNK         0.0745 
     79 H79        32.3411   25.7522    1.2694 H         1 UNK         0.0705 
     80 H80        31.0640   24.5735    1.1089 H         1 UNK         0.0705 
     81 H81        32.1111   27.5660    3.0835 H         1 UNK         0.1334 
     82 H82        30.1258   26.3105    6.6629 H         1 UNK         0.1417 
     83 H83        29.7725   23.9726    3.0794 H         1 UNK         0.1562 
     84 H84        28.7776   24.3943    6.7206 H         1 UNK         0.0748 
     85 H85        29.4988   23.0930    5.8085 H         1 UNK         0.0748 
     86 H86        27.3963   26.1522    5.0213 H         1 UNK         0.0940 
     87 H87        25.7709   25.5342    4.9904 H         1 UNK         0.0940 
     88 H88        27.6412   25.4531    2.5453 H         1 UNK         0.0703 
     89 H89        24.7046   25.2807    2.4462 H         1 UNK         0.3081 
     90 H90        24.3129   22.2805    1.6979 H         1 UNK         0.0719 
     91 H91        23.4726   24.9758    0.4916 H         1 UNK         0.0809 
     92 H92        22.4345   23.5590    0.5921 H         1 UNK         0.0809 
     93 H93        22.9893   24.3266    2.0620 H         1 UNK         0.0809 
     94 H94        25.1220   23.4026   -0.9477 H         1 UNK         0.2990 
     95 H95        25.6908   20.4129   -2.3371 H         1 UNK         0.0690 
     96 H96        23.7931   20.3300   -3.9590 H         1 UNK         0.0788 
     97 H97        22.7844   21.2522   -2.8433 H         1 UNK         0.0788 
     98 H98        23.3330   19.6382   -2.4142 H         1 UNK         0.0788 
     99 H99        24.5319   22.8989   -3.4131 H         1 UNK         0.2993 
    100 H100       27.3875   23.9271   -4.7233 H         1 UNK         0.0949 
    101 H101       24.9434   24.0806   -5.1584 H         1 UNK         0.0767 
    102 H102       24.7053   25.0066   -3.6749 H         1 UNK         0.0767 
    103 H103       25.6406   25.6788   -5.0005 H         1 UNK         0.0767 
    104 H104       28.3210   25.4380   -3.3926 H         1 UNK         0.3013 
    105 H105       28.3377   27.6687    2.8846 H         1 UNK         0.3121 
    106 H106       26.4024   29.8199    2.9188 H         1 UNK         0.0774 
    107 H107       27.2459   30.8103    0.7630 H         1 UNK         0.0815 
    108 H108       28.2208   29.3786    0.4678 H         1 UNK         0.0815 
    109 H109       26.4601   29.2730    0.4504 H         1 UNK         0.0815 
    110 H110       27.6369   31.9208    3.0199 H         1 UNK         0.2987 
    111 H111       29.9402   31.7421    4.7624 H         1 UNK         0.0949 
    112 H112       28.6682   34.1459    3.3352 H         1 UNK         0.0806 
    113 H113       28.2882   33.5933    4.9671 H         1 UNK         0.0806 
    114 H114       29.8815   34.2362    4.6040 H         1 UNK         0.0806 
    115 H115       32.0881   31.7186    4.2065 H         1 UNK         0.3010 
    116 H116       33.1282   32.6867    1.7026 H         1 UNK         0.0829 
    117 H117       33.9271   30.4184    0.9304 H         1 UNK         0.0813 
    118 H118       33.0444   29.6482    2.2435 H         1 UNK         0.0813 
    119 H119       32.1755   30.4630    0.9495 H         1 UNK         0.0813 
    120 H120       35.4889   32.2641    1.6412 H         1 UNK         0.3038 
    121 H121       36.8068   32.9437    4.0275 H         1 UNK         0.0769 
    122 H122       38.8754   32.6360    2.6509 H         1 UNK         0.0811 
    123 H123       37.6484   33.5226    1.7649 H         1 UNK         0.0811 
    124 H124       37.9402   31.8193    1.4068 H         1 UNK         0.0811 
    125 H125       35.8800   29.8058    2.9777 H         1 UNK         0.3204 
    126 H126       37.7382   28.1695    4.4102 H         1 UNK         0.0748 
    127 H127       35.9470   26.4397    4.1630 H         1 UNK         0.0771 
    128 H128       34.8083   27.6669    3.6302 H         1 UNK         0.0771 
    129 H129       36.2194   27.2763    2.6440 H         1 UNK         0.0771 
    130 H130       34.9406   30.0843    5.4387 H         1 UNK         0.2980 
    131 H131       35.2358   29.0693    8.2334 H         1 UNK         0.0545 
    132 H132       34.9782   32.0373    6.1543 H         1 UNK         0.3459 
    133 H133       35.5251   33.0932    7.4394 H         1 UNK         0.3459 
    134 H134       32.9163   29.7358    8.6545 H         1 UNK         0.0616 
    135 H135       32.7291   30.3171    7.0207 H         1 UNK         0.0616 
    136 H136       32.3058   28.9111    4.9949 H         1 UNK         0.0634 
    137 H137       30.8554   28.9111    5.9725 H         1 UNK         0.0634 
@<TRIPOS>BOND
     1    1    2 1    
     2    1   72 1    
     3    1   73 1    
     4    1   74 1    
     5    2    3 2    
     6    2    4 am   BACKBONE|DICT|INTERRES
     7    4    5 1    
     8    4   75 1    
     9    5    6 1    
    10    5   35 1    
    11    5   76 1    
    12    6    7 1    
    13    6   77 1    
    14    6   78 1    
    15    7    8 1    
    16    8    9 1    
    17    8   79 1    
    18    8   80 1    
    19    9   10 ar   
    20    9   14 ar   
    21   10   11 ar   
    22   10   81 1    
    23   11   12 ar   
    24   11   71 1    
    25   12   13 ar   
    26   12   82 1    
    27   13   14 ar   
    28   13   15 1    
    29   14   83 1    
    30   15   16 1    
    31   15   84 1    
    32   15   85 1    
    33   16   17 1    
    34   17   18 1    
    35   17   86 1    
    36   17   87 1    
    37   18   19 1    
    38   18   37 1    
    39   18   88 1    
    40   19   20 am   BACKBONE|DICT|INTERRES
    41   19   89 1    
    42   20   21 2    
    43   20   22 1    
    44   22   23 1    
    45   22   24 1    
    46   22   90 1    
    47   23   91 1    
    48   23   92 1    
    49   23   93 1    
    50   24   25 am   BACKBONE|DICT|INTERRES
    51   24   94 1    
    52   25   26 2    
    53   25   27 1    
    54   27   28 1    
    55   27   29 1    
    56   27   95 1    
    57   28   96 1    
    58   28   97 1    
    59   28   98 1    
    60   29   30 am   BACKBONE|DICT|INTERRES
    61   29   99 1    
    62   30   31 2    
    63   30   32 1    
    64   32   33 1    
    65   32   34 1    
    66   32  100 1    
    67   33  101 1    
    68   33  102 1    
    69   33  103 1    
    70   34   35 am   BACKBONE|DICT|INTERRES
    71   34  104 1    
    72   35   36 2    
    73   37   38 2    
    74   37   39 am   BACKBONE|DICT|INTERRES
    75   39   40 1    
    76   39  105 1    
    77   40   41 1    
    78   40   42 1    
    79   40  106 1    
    80   41  107 1    
    81   41  108 1    
    82   41  109 1    
    83   42   43 2    
    84   42   44 am   BACKBONE|DICT|INTERRES
    85   44   45 1    
    86   44  110 1    
    87   45   46 1    
    88   45   47 1    
    89   45  111 1    
    90   46  112 1    
    91   46  113 1    
    92   46  114 1    
    93   47   48 2    
    94   47   49 am   BACKBONE|DICT|INTERRES
    95   49   50 1    
    96   49  115 1    
    97   50   51 1    
    98   50   52 1    
    99   50  116 1    
   100   51  117 1    
   101   51  118 1    
   102   51  119 1    
   103   52   53 2    
   104   52   54 am   BACKBONE|DICT|INTERRES
   105   54   55 1    
   106   54  120 1    
   107   55   56 1    
   108   55   57 1    
   109   55  121 1    
   110   56  122 1    
   111   56  123 1    
   112   56  124 1    
   113   57   58 2    
   114   57   59 am   BACKBONE|DICT|INTERRES
   115   59   60 1    
   116   59  125 1    
   117   60   61 1    
   118   60   62 1    
   119   60  126 1    
   120   61  127 1    
   121   61  128 1    
   122   61  129 1    
   123   62   63 2    
   124   62   64 am   BACKBONE|DICT|INTERRES
   125   64   65 1    
   126   64  130 1    
   127   65   66 1    
   128   65   69 1    
   129   65  131 1    
   130   66   67 am   BACKBONE|DICT|INTERRES
   131   66   68 2    
   132   67  132 1    
   133   67  133 1    
   134   69   70 1    
   135   69  134 1    
   136   69  135 1    
   137   70   71 1    
   138   71  136 1    
   139   71  137 1    
@<TRIPOS>SUBSTRUCTURE
     1 UNK         1 GROUP             0       ****    0 ROOT    
