@<TRIPOS>MOLECULE
3R136
137   139    1
SMALL
USER_CHARGES


@<TRIPOS>ATOM
      1 CA         31.4268   20.6164   -3.5850 C.3       0 UNK        -0.1979 
      2 C          30.5116   21.6490   -2.9432 C.2       0 UNK         0.4864 
      3 O          29.3512   21.7675   -3.3398 O.2       0 UNK        -0.5359 
      4 N          31.0264   22.4014   -1.9617 N.am      1 UNK        -0.4318 
      5 CA         30.2766   23.3928   -1.1869 C.3       1 UNK         0.0824 
      6 C6         31.2404   24.3566   -0.4485 C.3       12 UNK        -0.0944 
      7 S7         30.4100   25.5970    0.6050 S.3       12 UNK        -0.2672 
      8 C8         30.8873   24.9576    2.2415 C.3       12 UNK         0.0333 
      9 C9         30.2139   25.7377    3.3539 C.ar      12 UNK        -0.0807 
     10 C10        30.9005   26.7540    4.0254 C.ar      12 UNK        -0.0894 
     11 C11        30.2693   27.4815    5.0385 C.ar      12 UNK        -0.0804 
     12 C12        28.9427   27.1925    5.3690 C.ar      12 UNK        -0.0824 
     13 C13        28.2467   26.1817    4.6992 C.ar      12 UNK        -0.0762 
     14 C14        28.8942   25.4437    3.7054 C.ar      12 UNK        -0.0782 
     15 C15        26.7795   25.9272    5.0180 C.3       12 UNK         0.0230 
     16 S16        25.6818   26.2255    3.5885 S.3       12 UNK        -0.2608 
     17 C17        26.3046   27.8057    2.9079 C.3       12 UNK        -0.0989 
     18 CA         26.8589   27.6024    1.4689 C.3       5 UNK         0.0716 
     19 N          25.7930   27.2946    0.5022 N.am      5 UNK        -0.4135 
     20 C          24.7947   28.1159    0.1320 C.2       4 UNK         0.5031 
     21 O          24.6878   29.2872    0.4976 O.2       4 UNK        -0.5229 
     22 CA         23.7121   27.5387   -0.7981 C.3       4 UNK         0.0329 
     23 CB         24.0093   27.9100   -2.2600 C.3       4 UNK        -0.2001 
     24 N          23.5730   26.0864   -0.6909 N.am      4 UNK        -0.4303 
     25 C          23.1143   25.4204    0.3776 C.2       3 UNK         0.5044 
     26 O          22.6449   25.9629    1.3780 O.2       3 UNK        -0.5152 
     27 CA         23.1905   23.8830    0.3131 C.3       3 UNK         0.0319 
     28 CB         22.7095   23.3309   -1.0465 C.3       3 UNK        -0.2001 
     29 N          24.5068   23.3206    0.6552 N.am      3 UNK        -0.4354 
     30 C          25.6958   23.5901    0.0945 C.2       2 UNK         0.4964 
     31 O          25.8888   24.4962   -0.7239 O.2       2 UNK        -0.5047 
     32 CA         26.8678   22.6727    0.4827 C.3       2 UNK         0.0288 
     33 CB         26.5419   21.1931    0.1763 C.3       2 UNK        -0.2113 
     34 N          28.0230   23.1187   -0.2910 N.am      2 UNK        -0.4145 
     35 C          29.2851   22.6834   -0.2378 C.2       1 UNK         0.5006 
     36 O          29.6879   21.7959    0.5188 O.2       1 UNK        -0.5103 
     37 C          27.7452   28.7672    0.9736 C.2       5 UNK         0.5055 
     38 O          27.9347   29.7599    1.6794 O.2       5 UNK        -0.5220 
     39 N          28.2303   28.6338   -0.2695 N.am      6 UNK        -0.4450 
     40 CA         28.9427   29.6772   -1.0088 C.3       6 UNK         0.0367 
     41 CB         29.0503   29.2643   -2.4855 C.3       6 UNK        -0.1929 
     42 C          30.3322   30.0249   -0.4501 C.2       6 UNK         0.5070 
     43 O          30.7220   31.1924   -0.5029 O.2       6 UNK        -0.5237 
     44 N          31.0665   29.0306    0.0687 N.am      7 UNK        -0.4739 
     45 CA         32.4421   29.1854    0.5579 C.3       7 UNK         0.0276 
     46 CB         33.1849   27.8405    0.4507 C.3       7 UNK        -0.1927 
     47 C          32.4982   29.7719    1.9806 C.2       7 UNK         0.5013 
     48 O          33.1279   29.1856    2.8617 O.2       7 UNK        -0.5193 
     49 N          31.8645   30.9362    2.1804 N.am      8 UNK        -0.4253 
     50 CA         31.7673   31.6612    3.4552 C.3       8 UNK         0.0242 
     51 CB         30.9884   32.9675    3.2403 C.3       8 UNK        -0.2000 
     52 C          33.1217   31.9452    4.1307 C.2       8 UNK         0.4948 
     53 O          33.2044   31.9235    5.3595 O.2       8 UNK        -0.5275 
     54 N          34.1695   32.1369    3.3169 N.am      9 UNK        -0.4246 
     55 CA         35.5629   32.2978    3.7386 C.3       9 UNK         0.0261 
     56 CB         36.4230   32.6259    2.5072 C.3       9 UNK        -0.1959 
     57 C          36.1490   31.0889    4.4956 C.2       9 UNK         0.5033 
     58 O          37.1188   31.2722    5.2327 O.2       9 UNK        -0.5390 
     59 N          35.5668   29.8901    4.3271 N.am      10 UNK        -0.4215 
     60 CA         35.9326   28.6945    5.0922 C.3       10 UNK         0.0240 
     61 CB         35.3997   27.4395    4.3811 C.3       10 UNK        -0.1982 
     62 C          35.4218   28.7438    6.5435 C.2       10 UNK         0.4970 
     63 O          36.0362   28.1224    7.4116 O.2       10 UNK        -0.4916 
     64 N          34.3214   29.4696    6.7787 N.am      11 UNK        -0.4279 
     65 CA         33.7296   29.6877    8.1048 C.3       11 UNK         0.1003 
     66 C          34.2489   30.9983    8.7501 C.2       11 UNK         0.5709 
     67 N          34.3785   32.0836    7.9958 N.am      11 UNK        -0.7358 
     68 O          34.5432   31.0284    9.9427 O.2       11 UNK        -0.4999 
     69 C69        32.1810   29.6816    8.0548 C.3       12 UNK        -0.0954 
     70 S70        31.5009   28.1070    7.4337 S.3       12 UNK        -0.2268 
     71 C71        31.0001   28.6025    5.7586 C.3       12 UNK         0.0203 
     72 H72        31.5227   20.8119   -4.6527 H         1 UNK         0.0888 
     73 H73        32.4249   20.6275   -3.1475 H         1 UNK         0.0888 
     74 H74        31.0119   19.6169   -3.4571 H         1 UNK         0.0888 
     75 H75        31.9763   22.2371   -1.6607 H         1 UNK         0.3017 
     76 H76        29.7009   23.9922   -1.8963 H         1 UNK         0.0873 
     77 H77        31.9536   23.7887    0.1520 H         1 UNK         0.0745 
     78 H78        31.8412   24.9000   -1.1796 H         1 UNK         0.0745 
     79 H79        31.9724   25.0035    2.3473 H         1 UNK         0.0705 
     80 H80        30.6136   23.9041    2.3182 H         1 UNK         0.0705 
     81 H81        31.9212   26.9851    3.7532 H         1 UNK         0.1334 
     82 H82        28.4495   27.7698    6.1393 H         1 UNK         0.1417 
     83 H83        28.3573   24.6667    3.1785 H         1 UNK         0.1562 
     84 H84        26.4490   26.5582    5.8446 H         1 UNK         0.0748 
     85 H85        26.6566   24.8961    5.3517 H         1 UNK         0.0748 
     86 H86        27.0652   28.2207    3.5687 H         1 UNK         0.0940 
     87 H87        25.4947   28.5361    2.9189 H         1 UNK         0.0940 
     88 H88        27.5177   26.7328    1.4856 H         1 UNK         0.0703 
     89 H89        25.7930   26.3536    0.1231 H         1 UNK         0.3081 
     90 H90        22.7589   27.9897   -0.5140 H         1 UNK         0.0719 
     91 H91        23.2128   27.5748   -2.9246 H         1 UNK         0.0809 
     92 H92        24.9451   27.4695   -2.6069 H         1 UNK         0.0809 
     93 H93        24.0943   28.9912   -2.3784 H         1 UNK         0.0809 
     94 H94        24.0014   25.5367   -1.4239 H         1 UNK         0.2990 
     95 H95        22.4986   23.5130    1.0716 H         1 UNK         0.0690 
     96 H96        22.5882   22.2483   -1.0067 H         1 UNK         0.0788 
     97 H97        23.4057   23.5520   -1.8561 H         1 UNK         0.0788 
     98 H98        21.7413   23.7520   -1.3213 H         1 UNK         0.0788 
     99 H99        24.4807   22.5926    1.3556 H         1 UNK         0.2993 
    100 H100       27.0799   22.8034    1.5455 H         1 UNK         0.0949 
    101 H101       25.6774   20.8457    0.7426 H         1 UNK         0.0767 
    102 H102       26.3221   21.0436   -0.8817 H         1 UNK         0.0767 
    103 H103       27.3684   20.5333    0.4389 H         1 UNK         0.0767 
    104 H104       27.7822   23.8710   -0.9273 H         1 UNK         0.3013 
    105 H105       28.0268   27.7830   -0.7735 H         1 UNK         0.3121 
    106 H106       28.3384   30.5856   -0.9567 H         1 UNK         0.0774 
    107 H107       29.5546   30.0353   -3.0701 H         1 UNK         0.0815 
    108 H108       29.6179   28.3407   -2.6071 H         1 UNK         0.0815 
    109 H109       28.0660   29.1166   -2.9304 H         1 UNK         0.0815 
    110 H110       30.6646   28.1042    0.1264 H         1 UNK         0.2987 
    111 H111       32.9635   29.8905   -0.0935 H         1 UNK         0.0949 
    112 H112       33.1013   27.4125   -0.5482 H         1 UNK         0.0806 
    113 H113       34.2475   27.9679    0.6613 H         1 UNK         0.0806 
    114 H114       32.8053   27.1112    1.1653 H         1 UNK         0.0806 
    115 H115       31.3741   31.3317    1.3837 H         1 UNK         0.3010 
    116 H116       31.1917   31.0342    4.1365 H         1 UNK         0.0829 
    117 H117       29.9841   32.7720    2.8632 H         1 UNK         0.0813 
    118 H118       30.8800   33.5165    4.1770 H         1 UNK         0.0813 
    119 H119       31.4913   33.6263    2.5312 H         1 UNK         0.0813 
    120 H120       33.9974   32.1296    2.3221 H         1 UNK         0.3038 
    121 H121       35.5999   33.1503    4.4202 H         1 UNK         0.0769 
    122 H122       36.4045   31.8176    1.7750 H         1 UNK         0.0811 
    123 H123       37.4648   32.7852    2.7897 H         1 UNK         0.0811 
    124 H124       36.0818   33.5363    2.0141 H         1 UNK         0.0811 
    125 H125       34.7616   29.8014    3.7114 H         1 UNK         0.3204 
    126 H126       37.0222   28.6274    5.1239 H         1 UNK         0.0748 
    127 H127       35.7612   26.5340    4.8700 H         1 UNK         0.0771 
    128 H128       34.3101   27.3996    4.3943 H         1 UNK         0.0771 
    129 H129       35.7247   27.4002    3.3412 H         1 UNK         0.0771 
    130 H130       33.9151   30.0080    6.0252 H         1 UNK         0.2980 
    131 H131       34.0287   28.8715    8.7655 H         1 UNK         0.0545 
    132 H132       34.0652   32.0756    7.0291 H         1 UNK         0.3459 
    133 H133       34.7209   32.9359    8.4088 H         1 UNK         0.3459 
    134 H134       31.8111   30.5090    7.4461 H         1 UNK         0.0616 
    135 H135       31.7720   29.8374    9.0548 H         1 UNK         0.0616 
    136 H136       31.8854   28.9066    5.2000 H         1 UNK         0.0634 
    137 H137       30.3489   29.4757    5.8177 H         1 UNK         0.0634 
@<TRIPOS>BOND
     1    1    2 1    
     2    1   72 1    
     3    1   73 1    
     4    1   74 1    
     5    2    3 2    
     6    2    4 am   BACKBONE|DICT|INTERRES
     7    4    5 1    
     8    4   75 1    
     9    5    6 1    
    10    5   35 1    
    11    5   76 1    
    12    6    7 1    
    13    6   77 1    
    14    6   78 1    
    15    7    8 1    
    16    8    9 1    
    17    8   79 1    
    18    8   80 1    
    19    9   10 ar   
    20    9   14 ar   
    21   10   11 ar   
    22   10   81 1    
    23   11   12 ar   
    24   11   71 1    
    25   12   13 ar   
    26   12   82 1    
    27   13   14 ar   
    28   13   15 1    
    29   14   83 1    
    30   15   16 1    
    31   15   84 1    
    32   15   85 1    
    33   16   17 1    
    34   17   18 1    
    35   17   86 1    
    36   17   87 1    
    37   18   19 1    
    38   18   37 1    
    39   18   88 1    
    40   19   20 am   BACKBONE|DICT|INTERRES
    41   19   89 1    
    42   20   21 2    
    43   20   22 1    
    44   22   23 1    
    45   22   24 1    
    46   22   90 1    
    47   23   91 1    
    48   23   92 1    
    49   23   93 1    
    50   24   25 am   BACKBONE|DICT|INTERRES
    51   24   94 1    
    52   25   26 2    
    53   25   27 1    
    54   27   28 1    
    55   27   29 1    
    56   27   95 1    
    57   28   96 1    
    58   28   97 1    
    59   28   98 1    
    60   29   30 am   BACKBONE|DICT|INTERRES
    61   29   99 1    
    62   30   31 2    
    63   30   32 1    
    64   32   33 1    
    65   32   34 1    
    66   32  100 1    
    67   33  101 1    
    68   33  102 1    
    69   33  103 1    
    70   34   35 am   BACKBONE|DICT|INTERRES
    71   34  104 1    
    72   35   36 2    
    73   37   38 2    
    74   37   39 am   BACKBONE|DICT|INTERRES
    75   39   40 1    
    76   39  105 1    
    77   40   41 1    
    78   40   42 1    
    79   40  106 1    
    80   41  107 1    
    81   41  108 1    
    82   41  109 1    
    83   42   43 2    
    84   42   44 am   BACKBONE|DICT|INTERRES
    85   44   45 1    
    86   44  110 1    
    87   45   46 1    
    88   45   47 1    
    89   45  111 1    
    90   46  112 1    
    91   46  113 1    
    92   46  114 1    
    93   47   48 2    
    94   47   49 am   BACKBONE|DICT|INTERRES
    95   49   50 1    
    96   49  115 1    
    97   50   51 1    
    98   50   52 1    
    99   50  116 1    
   100   51  117 1    
   101   51  118 1    
   102   51  119 1    
   103   52   53 2    
   104   52   54 am   BACKBONE|DICT|INTERRES
   105   54   55 1    
   106   54  120 1    
   107   55   56 1    
   108   55   57 1    
   109   55  121 1    
   110   56  122 1    
   111   56  123 1    
   112   56  124 1    
   113   57   58 2    
   114   57   59 am   BACKBONE|DICT|INTERRES
   115   59   60 1    
   116   59  125 1    
   117   60   61 1    
   118   60   62 1    
   119   60  126 1    
   120   61  127 1    
   121   61  128 1    
   122   61  129 1    
   123   62   63 2    
   124   62   64 am   BACKBONE|DICT|INTERRES
   125   64   65 1    
   126   64  130 1    
   127   65   66 1    
   128   65   69 1    
   129   65  131 1    
   130   66   67 am   BACKBONE|DICT|INTERRES
   131   66   68 2    
   132   67  132 1    
   133   67  133 1    
   134   69   70 1    
   135   69  134 1    
   136   69  135 1    
   137   70   71 1    
   138   71  136 1    
   139   71  137 1    
@<TRIPOS>SUBSTRUCTURE
     1 UNK         1 GROUP             0       ****    0 ROOT    
