@<TRIPOS>MOLECULE
3R136
137   139    1
SMALL
USER_CHARGES


@<TRIPOS>ATOM
      1 CA         24.3577   22.9500    3.3212 C.3       0 UNK        -0.1979 
      2 C          25.2698   24.1384    3.0291 C.2       0 UNK         0.4864 
      3 O          24.8669   25.2747    3.2680 O.2       0 UNK        -0.5359 
      4 N          26.4932   23.9324    2.5233 N.am      1 UNK        -0.4318 
      5 CA         27.0701   22.6444    2.1224 C.3       1 UNK         0.0824 
      6 C6         28.6120   22.6183    2.2570 C.3       12 UNK        -0.0944 
      7 S7         29.1879   22.9711    3.9489 S.3       12 UNK        -0.2672 
      8 C8         30.9675   22.6307    3.7771 C.3       12 UNK         0.0333 
      9 C9         31.6812   23.7018    2.9629 C.ar      12 UNK        -0.0807 
     10 C10        32.1922   24.8377    3.5966 C.ar      12 UNK        -0.0894 
     11 C11        32.8834   25.8075    2.8647 C.ar      12 UNK        -0.0804 
     12 C12        33.0519   25.6433    1.4871 C.ar      12 UNK        -0.0824 
     13 C13        32.5409   24.5140    0.8398 C.ar      12 UNK        -0.0762 
     14 C14        31.8606   23.5447    1.5845 C.ar      12 UNK        -0.0782 
     15 C15        32.7589   24.3186   -0.6556 C.3       12 UNK         0.0230 
     16 S16        32.0186   25.6452   -1.6622 S.3       12 UNK        -0.2608 
     17 C17        30.2441   25.4700   -1.2853 C.3       12 UNK        -0.0989 
     18 CA         29.6780   26.7449   -0.5949 C.3       5 UNK         0.0716 
     19 N          28.6965   27.4272   -1.4366 N.am      5 UNK        -0.4135 
     20 C          28.3878   28.7281   -1.3377 C.2       4 UNK         0.5031 
     21 O          28.9891   29.5193   -0.6104 O.2       4 UNK        -0.5229 
     22 CA         27.2107   29.2465   -2.1847 C.3       4 UNK         0.0329 
     23 CB         27.7241   29.8811   -3.4873 C.3       4 UNK        -0.2001 
     24 N          26.2236   28.2142   -2.5086 N.am      4 UNK        -0.4303 
     25 C          25.4104   27.6215   -1.6231 C.2       3 UNK         0.5044 
     26 O          25.3557   27.9244   -0.4311 O.2       3 UNK        -0.5152 
     27 CA         24.5106   26.4872   -2.1502 C.3       3 UNK         0.0319 
     28 CB         24.2116   26.5796   -3.6645 C.3       3 UNK        -0.2001 
     29 N          25.0405   25.1613   -1.8083 N.am      3 UNK        -0.4354 
     30 C          26.2413   24.6602   -2.1343 C.2       2 UNK         0.4964 
     31 O          27.1069   25.2824   -2.7545 O.2       2 UNK        -0.5047 
     32 CA         26.5278   23.2382   -1.6398 C.3       2 UNK         0.0288 
     33 CB         27.6880   22.5575   -2.3946 C.3       2 UNK        -0.2113 
     34 N          26.8313   23.3111   -0.2165 N.am      2 UNK        -0.4145 
     35 C          26.6638   22.3252    0.6728 C.2       1 UNK         0.5006 
     36 O          26.1987   21.2182    0.3980 O.2       1 UNK        -0.5103 
     37 C          28.9967   26.4318    0.7472 C.2       5 UNK         0.5055 
     38 O          28.0806   25.6074    0.7772 O.2       5 UNK        -0.5220 
     39 N          29.4255   27.1071    1.8156 N.am      6 UNK        -0.4450 
     40 CA         28.8982   26.9993    3.1707 C.3       6 UNK         0.0367 
     41 CB         27.4767   27.5944    3.2433 C.3       6 UNK        -0.1929 
     42 C          29.8334   27.7779    4.0987 C.2       6 UNK         0.5070 
     43 O          30.5797   28.6399    3.6278 O.2       6 UNK        -0.5237 
     44 N          29.7308   27.5249    5.4105 N.am      7 UNK        -0.4739 
     45 CA         30.4668   28.2448    6.4620 C.3       7 UNK         0.0276 
     46 CB         30.1616   27.6056    7.8253 C.3       7 UNK        -0.1927 
     47 C          30.1841   29.7602    6.4992 C.2       7 UNK         0.5013 
     48 O          31.0478   30.5299    6.9208 O.2       7 UNK        -0.5193 
     49 N          29.0084   30.1663    5.9970 N.am      8 UNK        -0.4253 
     50 CA         28.6017   31.5568    5.7745 C.3       8 UNK         0.0242 
     51 CB         27.1413   31.5792    5.2944 C.3       8 UNK        -0.2000 
     52 C          29.5021   32.3303    4.7894 C.2       8 UNK         0.4948 
     53 O          29.5231   33.5599    4.8464 O.2       8 UNK        -0.5275 
     54 N          30.2512   31.6175    3.9333 N.am      9 UNK        -0.4246 
     55 CA         31.2577   32.1834    3.0308 C.3       9 UNK         0.0261 
     56 CB         31.4041   31.2631    1.8051 C.3       9 UNK        -0.1959 
     57 C          32.6226   32.4136    3.7138 C.2       9 UNK         0.5033 
     58 O          33.5896   32.7182    3.0146 O.2       9 UNK        -0.5390 
     59 N          32.7110   32.2204    5.0403 N.am      10 UNK        -0.4215 
     60 CA         33.8823   32.3488    5.9234 C.3       10 UNK         0.0240 
     61 CB         34.5145   33.7528    5.8451 C.3       10 UNK        -0.1982 
     62 C          34.9405   31.2444    5.7489 C.2       10 UNK         0.4970 
     63 O          35.6056   30.9014    6.7268 O.2       10 UNK        -0.4916 
     64 N          35.0539   30.6851    4.5385 N.am      11 UNK        -0.4279 
     65 CA         35.8941   29.5324    4.1796 C.3       11 UNK         0.1003 
     66 C          37.4270   29.8158    4.1406 C.2       11 UNK         0.5709 
     67 N          37.8669   31.0686    4.1610 N.am      11 UNK        -0.7358 
     68 O          38.2326   28.8918    4.0570 O.2       11 UNK        -0.4999 
     69 C69        35.5113   28.2551    4.9923 C.3       12 UNK        -0.0954 
     70 S70        35.2232   26.8033    3.9330 S.3       12 UNK        -0.2268 
     71 C71        33.4561   27.0266    3.5660 C.3       12 UNK         0.0203 
     72 H72        23.3759   23.2929    3.6473 H         1 UNK         0.0888 
     73 H73        24.2134   22.3343    2.4339 H         1 UNK         0.0888 
     74 H74        24.7743   22.3325    4.1165 H         1 UNK         0.0888 
     75 H75        27.0601   24.7373    2.2784 H         1 UNK         0.3017 
     76 H76        26.6796   21.8505    2.7610 H         1 UNK         0.0873 
     77 H77        29.0717   23.3431    1.5851 H         1 UNK         0.0745 
     78 H78        28.9977   21.6397    1.9638 H         1 UNK         0.0745 
     79 H79        31.1119   21.6474    3.3269 H         1 UNK         0.0705 
     80 H80        31.4087   22.5726    4.7732 H         1 UNK         0.0705 
     81 H81        32.0621   24.9604    4.6633 H         1 UNK         0.1334 
     82 H82        33.5915   26.3891    0.9192 H         1 UNK         0.1417 
     83 H83        31.4773   22.6604    1.0940 H         1 UNK         0.1562 
     84 H84        32.3598   23.3590   -0.9884 H         1 UNK         0.0748 
     85 H85        33.8313   24.2869   -0.8530 H         1 UNK         0.0748 
     86 H86        30.0913   24.5674   -0.6900 H         1 UNK         0.0940 
     87 H87        29.7329   25.2711   -2.2281 H         1 UNK         0.0940 
     88 H88        30.4978   27.4396   -0.3965 H         1 UNK         0.0703 
     89 H89        28.1155   26.8275   -2.0148 H         1 UNK         0.3081 
     90 H90        26.7070   30.0212   -1.6025 H         1 UNK         0.0719 
     91 H91        28.4421   30.6753   -3.2770 H         1 UNK         0.0809 
     92 H92        28.2246   29.1499   -4.1235 H         1 UNK         0.0809 
     93 H93        26.9106   30.3262   -4.0605 H         1 UNK         0.0809 
     94 H94        26.2143   27.8743   -3.4596 H         1 UNK         0.2990 
     95 H95        23.5594   26.5860   -1.6247 H         1 UNK         0.0690 
     96 H96        23.4601   25.8459   -3.9563 H         1 UNK         0.0788 
     97 H97        25.0947   26.4013   -4.2787 H         1 UNK         0.0788 
     98 H98        23.8160   27.5616   -3.9282 H         1 UNK         0.0788 
     99 H99        24.4297   24.5885   -1.2424 H         1 UNK         0.2993 
    100 H100       25.6229   22.6454   -1.7920 H         1 UNK         0.0949 
    101 H101       27.5054   22.5552   -3.4699 H         1 UNK         0.0767 
    102 H102       28.6367   23.0660   -2.2241 H         1 UNK         0.0767 
    103 H103       27.8071   21.5193   -2.0844 H         1 UNK         0.0767 
    104 H104       27.2114   24.2013    0.1100 H         1 UNK         0.3013 
    105 H105       30.1803   27.7786    1.7322 H         1 UNK         0.3121 
    106 H106       28.8900   25.9489    3.4668 H         1 UNK         0.0774 
    107 H107       27.0546   27.4906    4.2433 H         1 UNK         0.0815 
    108 H108       27.4735   28.6559    2.9919 H         1 UNK         0.0815 
    109 H109       26.7897   27.0972    2.5591 H         1 UNK         0.0815 
    110 H110       29.0907   26.8064    5.7192 H         1 UNK         0.2987 
    111 H111       31.5333   28.1270    6.2602 H         1 UNK         0.0949 
    112 H112       30.4501   26.5545    7.8448 H         1 UNK         0.0806 
    113 H113       30.7140   28.1052    8.6227 H         1 UNK         0.0806 
    114 H114       29.1016   27.6693    8.0741 H         1 UNK         0.0806 
    115 H115       28.3669   29.4536    5.6828 H         1 UNK         0.3010 
    116 H116       28.6574   32.0728    6.7354 H         1 UNK         0.0829 
    117 H117       26.4754   31.1148    6.0221 H         1 UNK         0.0813 
    118 H118       26.7937   32.6032    5.1491 H         1 UNK         0.0813 
    119 H119       27.0202   31.0568    4.3445 H         1 UNK         0.0813 
    120 H120       30.1957   30.6030    3.9488 H         1 UNK         0.3038 
    121 H121       30.9077   33.1558    2.6782 H         1 UNK         0.0769 
    122 H122       32.0315   31.7250    1.0418 H         1 UNK         0.0811 
    123 H123       30.4387   31.0537    1.3437 H         1 UNK         0.0811 
    124 H124       31.8644   30.3100    2.0669 H         1 UNK         0.0811 
    125 H125       31.8810   31.8786    5.5133 H         1 UNK         0.3204 
    126 H126       33.4871   32.2284    6.9335 H         1 UNK         0.0748 
    127 H127       35.2931   33.8692    6.6002 H         1 UNK         0.0771 
    128 H128       34.9764   33.9431    4.8761 H         1 UNK         0.0771 
    129 H129       33.7728   34.5316    6.0225 H         1 UNK         0.0771 
    130 H130       34.5282   31.1101    3.7826 H         1 UNK         0.2980 
    131 H131       35.6400   29.3581    3.1337 H         1 UNK         0.0545 
    132 H132       38.8585   31.2447    4.1241 H         1 UNK         0.3459 
    133 H133       37.2176   31.8366    4.2166 H         1 UNK         0.3459 
    134 H134       36.2781   28.0023    5.7267 H         1 UNK         0.0616 
    135 H135       34.6075   28.4144    5.5823 H         1 UNK         0.0616 
    136 H136       33.3196   27.9152    2.9476 H         1 UNK         0.0634 
    137 H137       32.9124   27.2094    4.4931 H         1 UNK         0.0634 
@<TRIPOS>BOND
     1    1    2 1    
     2    1   72 1    
     3    1   73 1    
     4    1   74 1    
     5    2    3 2    
     6    2    4 am   BACKBONE|DICT|INTERRES
     7    4    5 1    
     8    4   75 1    
     9    5    6 1    
    10    5   35 1    
    11    5   76 1    
    12    6    7 1    
    13    6   77 1    
    14    6   78 1    
    15    7    8 1    
    16    8    9 1    
    17    8   79 1    
    18    8   80 1    
    19    9   10 ar   
    20    9   14 ar   
    21   10   11 ar   
    22   10   81 1    
    23   11   12 ar   
    24   11   71 1    
    25   12   13 ar   
    26   12   82 1    
    27   13   14 ar   
    28   13   15 1    
    29   14   83 1    
    30   15   16 1    
    31   15   84 1    
    32   15   85 1    
    33   16   17 1    
    34   17   18 1    
    35   17   86 1    
    36   17   87 1    
    37   18   19 1    
    38   18   37 1    
    39   18   88 1    
    40   19   20 am   BACKBONE|DICT|INTERRES
    41   19   89 1    
    42   20   21 2    
    43   20   22 1    
    44   22   23 1    
    45   22   24 1    
    46   22   90 1    
    47   23   91 1    
    48   23   92 1    
    49   23   93 1    
    50   24   25 am   BACKBONE|DICT|INTERRES
    51   24   94 1    
    52   25   26 2    
    53   25   27 1    
    54   27   28 1    
    55   27   29 1    
    56   27   95 1    
    57   28   96 1    
    58   28   97 1    
    59   28   98 1    
    60   29   30 am   BACKBONE|DICT|INTERRES
    61   29   99 1    
    62   30   31 2    
    63   30   32 1    
    64   32   33 1    
    65   32   34 1    
    66   32  100 1    
    67   33  101 1    
    68   33  102 1    
    69   33  103 1    
    70   34   35 am   BACKBONE|DICT|INTERRES
    71   34  104 1    
    72   35   36 2    
    73   37   38 2    
    74   37   39 am   BACKBONE|DICT|INTERRES
    75   39   40 1    
    76   39  105 1    
    77   40   41 1    
    78   40   42 1    
    79   40  106 1    
    80   41  107 1    
    81   41  108 1    
    82   41  109 1    
    83   42   43 2    
    84   42   44 am   BACKBONE|DICT|INTERRES
    85   44   45 1    
    86   44  110 1    
    87   45   46 1    
    88   45   47 1    
    89   45  111 1    
    90   46  112 1    
    91   46  113 1    
    92   46  114 1    
    93   47   48 2    
    94   47   49 am   BACKBONE|DICT|INTERRES
    95   49   50 1    
    96   49  115 1    
    97   50   51 1    
    98   50   52 1    
    99   50  116 1    
   100   51  117 1    
   101   51  118 1    
   102   51  119 1    
   103   52   53 2    
   104   52   54 am   BACKBONE|DICT|INTERRES
   105   54   55 1    
   106   54  120 1    
   107   55   56 1    
   108   55   57 1    
   109   55  121 1    
   110   56  122 1    
   111   56  123 1    
   112   56  124 1    
   113   57   58 2    
   114   57   59 am   BACKBONE|DICT|INTERRES
   115   59   60 1    
   116   59  125 1    
   117   60   61 1    
   118   60   62 1    
   119   60  126 1    
   120   61  127 1    
   121   61  128 1    
   122   61  129 1    
   123   62   63 2    
   124   62   64 am   BACKBONE|DICT|INTERRES
   125   64   65 1    
   126   64  130 1    
   127   65   66 1    
   128   65   69 1    
   129   65  131 1    
   130   66   67 am   BACKBONE|DICT|INTERRES
   131   66   68 2    
   132   67  132 1    
   133   67  133 1    
   134   69   70 1    
   135   69  134 1    
   136   69  135 1    
   137   70   71 1    
   138   71  136 1    
   139   71  137 1    
@<TRIPOS>SUBSTRUCTURE
     1 UNK         1 GROUP             0       ****    0 ROOT    
