@<TRIPOS>MOLECULE
3R136
137   139    1
SMALL
USER_CHARGES


@<TRIPOS>ATOM
      1 CA         32.2324   17.0340   -0.0216 C.3       0 UNK        -0.1979 
      2 C          31.8451   18.4962    0.1407 C.2       0 UNK         0.4864 
      3 O          32.7227   19.3546    0.2541 O.2       0 UNK        -0.5359 
      4 N          30.5384   18.7926    0.1518 N.am      1 UNK        -0.4318 
      5 CA         29.9848   20.1442    0.2647 C.3       1 UNK         0.0824 
      6 C6         28.5449   20.1155    0.8392 C.3       12 UNK        -0.0944 
      7 S7         27.9689   21.7719    1.3445 S.3       12 UNK        -0.2672 
      8 C8         28.0694   21.6724    3.1563 C.3       12 UNK         0.0333 
      9 C9         27.6714   22.9968    3.7907 C.ar      12 UNK        -0.0807 
     10 C10        28.6344   23.8221    4.3802 C.ar      12 UNK        -0.0894 
     11 C11        28.2629   25.0393    4.9606 C.ar      12 UNK        -0.0804 
     12 C12        26.9202   25.4292    4.9494 C.ar      12 UNK        -0.0824 
     13 C13        25.9556   24.6277    4.3346 C.ar      12 UNK        -0.0762 
     14 C14        26.3342   23.4051    3.7725 C.ar      12 UNK        -0.0782 
     15 C15        24.5090   25.0863    4.2491 C.3       12 UNK         0.0230 
     16 S16        24.1911   25.9427    2.6720 S.3       12 UNK        -0.2608 
     17 C17        24.5181   27.6922    3.0862 C.3       12 UNK        -0.0989 
     18 CA         25.9397   28.1947    2.7075 C.3       5 UNK         0.0716 
     19 N          26.2688   27.9256    1.3013 N.am      5 UNK        -0.4135 
     20 C          27.5113   27.8771    0.8071 C.2       4 UNK         0.5031 
     21 O          28.5178   28.1072    1.4798 O.2       4 UNK        -0.5229 
     22 CA         27.6677   27.5662   -0.6900 C.3       4 UNK         0.0329 
     23 CB         27.5115   28.8504   -1.5211 C.3       4 UNK        -0.2001 
     24 N          29.0025   27.0119   -0.9201 N.am      4 UNK        -0.4303 
     25 C          29.3238   25.7288   -0.7214 C.2       3 UNK         0.5044 
     26 O          28.4988   24.8219   -0.5957 O.2       3 UNK        -0.5152 
     27 CA         30.8247   25.4345   -0.5612 C.3       3 UNK         0.0319 
     28 CB         31.2300   25.5753    0.9182 C.3       3 UNK        -0.2001 
     29 N          31.1787   24.0905   -1.0151 N.am      3 UNK        -0.4354 
     30 C          31.2318   23.6917   -2.2937 C.2       2 UNK         0.4964 
     31 O          31.0285   24.4378   -3.2525 O.2       2 UNK        -0.5047 
     32 CA         31.5975   22.2172   -2.5514 C.3       2 UNK         0.0288 
     33 CB         33.0859   22.0873   -2.9153 C.3       2 UNK        -0.2113 
     34 N          31.3113   21.3580   -1.3990 N.am      2 UNK        -0.4145 
     35 C          30.0978   20.8849   -1.0878 C.2       1 UNK         0.5006 
     36 O          29.1151   20.9953   -1.8245 O.2       1 UNK        -0.5103 
     37 C          26.1288   29.6923    3.0564 C.2       5 UNK         0.5055 
     38 O          25.1468   30.3825    3.3398 O.2       5 UNK        -0.5220 
     39 N          27.3730   30.1815    3.0020 N.am      6 UNK        -0.4450 
     40 CA         27.7418   31.5740    3.2376 C.3       6 UNK         0.0367 
     41 CB         27.8740   32.3023    1.8893 C.3       6 UNK        -0.1929 
     42 C          29.0507   31.6206    4.0311 C.2       6 UNK         0.5070 
     43 O          30.0925   31.2088    3.5136 O.2       6 UNK        -0.5237 
     44 N          28.9752   32.1215    5.2707 N.am      7 UNK        -0.4739 
     45 CA         30.1116   32.3147    6.1757 C.3       7 UNK         0.0276 
     46 CB         29.5939   32.7682    7.5497 C.3       7 UNK        -0.1927 
     47 C          31.1228   33.3285    5.6210 C.2       7 UNK         0.5013 
     48 O          30.7140   34.3639    5.0898 O.2       7 UNK        -0.5193 
     49 N          32.4161   32.9999    5.7372 N.am      8 UNK        -0.4253 
     50 CA         33.6032   33.7281    5.2655 C.3       8 UNK         0.0242 
     51 CB         33.6944   35.1401    5.8769 C.3       8 UNK        -0.2000 
     52 C          33.7492   33.7691    3.7339 C.2       8 UNK         0.4948 
     53 O          34.8668   33.6284    3.2364 O.2       8 UNK        -0.5275 
     54 N          32.6334   33.9409    3.0145 N.am      9 UNK        -0.4246 
     55 CA         32.5532   33.9224    1.5545 C.3       9 UNK         0.0261 
     56 CB         31.1724   34.4317    1.1151 C.3       9 UNK        -0.1959 
     57 C          32.8345   32.5353    0.9528 C.2       9 UNK         0.5033 
     58 O          33.4428   32.4655   -0.1166 O.2       9 UNK        -0.5390 
     59 N          32.4003   31.4685    1.6380 N.am      10 UNK        -0.4215 
     60 CA         32.6147   30.0828    1.2233 C.3       10 UNK         0.0240 
     61 CB         31.4085   29.5877    0.4095 C.3       10 UNK        -0.1982 
     62 C          32.9106   29.1754    2.4245 C.2       10 UNK         0.4970 
     63 O          33.9136   28.4613    2.3977 O.2       10 UNK        -0.4916 
     64 N          32.0557   29.2165    3.4536 N.am      11 UNK        -0.4279 
     65 CA         32.2227   28.4540    4.6988 C.3       11 UNK         0.1003 
     66 C          33.2841   29.1184    5.6120 C.2       11 UNK         0.5709 
     67 N          34.3146   28.3882    6.0143 N.am      11 UNK        -0.7358 
     68 O          33.1542   30.2807    5.9918 O.2       11 UNK        -0.4999 
     69 C69        30.8812   28.2835    5.4558 C.3       12 UNK        -0.0954 
     70 S70        29.6482   27.3622    4.4876 S.3       12 UNK        -0.2268 
     71 C71        29.3096   25.9505    5.5793 C.3       12 UNK         0.0203 
     72 H72        32.8371   16.9040   -0.9187 H         1 UNK         0.0888 
     73 H73        32.8186   16.7044    0.8357 H         1 UNK         0.0888 
     74 H74        31.3590   16.3874   -0.1041 H         1 UNK         0.0888 
     75 H75        29.8628   18.0519    0.0254 H         1 UNK         0.3017 
     76 H76        30.5984   20.6921    0.9842 H         1 UNK         0.0873 
     77 H77        28.5024   19.4536    1.7058 H         1 UNK         0.0745 
     78 H78        27.8395   19.7016    0.1162 H         1 UNK         0.0745 
     79 H79        29.0832   21.3925    3.4473 H         1 UNK         0.0705 
     80 H80        27.4094   20.8815    3.5161 H         1 UNK         0.0705 
     81 H81        29.6733   23.5218    4.3808 H         1 UNK         0.1334 
     82 H82        26.6346   26.3749    5.3892 H         1 UNK         0.1417 
     83 H83        25.5917   22.7809    3.2936 H         1 UNK         0.1562 
     84 H84        24.2510   25.7243    5.0955 H         1 UNK         0.0748 
     85 H85        23.8480   24.2207    4.3145 H         1 UNK         0.0748 
     86 H86        24.3322   27.8499    4.1501 H         1 UNK         0.0940 
     87 H87        23.7612   28.2836    2.5670 H         1 UNK         0.0940 
     88 H88        26.6536   27.6440    3.3212 H         1 UNK         0.0703 
     89 H89        25.4860   27.7465    0.6899 H         1 UNK         0.3081 
     90 H90        26.9057   26.8445   -0.9925 H         1 UNK         0.0719 
     91 H91        26.5162   29.2791   -1.3972 H         1 UNK         0.0809 
     92 H92        28.2332   29.6138   -1.2258 H         1 UNK         0.0809 
     93 H93        27.6480   28.6533   -2.5845 H         1 UNK         0.0809 
     94 H94        29.7501   27.6880   -0.9607 H         1 UNK         0.2990 
     95 H95        31.3914   26.1576   -1.1519 H         1 UNK         0.0690 
     96 H96        30.7331   24.8317    1.5433 H         1 UNK         0.0788 
     97 H97        30.9556   26.5535    1.3160 H         1 UNK         0.0788 
     98 H98        32.3063   25.4637    1.0503 H         1 UNK         0.0788 
     99 H99        31.3265   23.3998   -0.2958 H         1 UNK         0.2993 
    100 H100       31.0060   21.8763   -3.4043 H         1 UNK         0.0949 
    101 H101       33.7319   22.4148   -2.0997 H         1 UNK         0.0767 
    102 H102       33.3460   21.0562   -3.1563 H         1 UNK         0.0767 
    103 H103       33.3286   22.6945   -3.7886 H         1 UNK         0.0767 
    104 H104       32.0861   21.1162   -0.7905 H         1 UNK         0.3013 
    105 H105       28.1262   29.5512    2.7311 H         1 UNK         0.3121 
    106 H106       26.9653   32.0738    3.8209 H         1 UNK         0.0774 
    107 H107       28.1133   33.3551    2.0404 H         1 UNK         0.0815 
    108 H108       28.6588   31.8669    1.2688 H         1 UNK         0.0815 
    109 H109       26.9424   32.2617    1.3248 H         1 UNK         0.0815 
    110 H110       28.0820   32.4566    5.6015 H         1 UNK         0.2987 
    111 H111       30.6154   31.3571    6.3013 H         1 UNK         0.0949 
    112 H112       30.4175   32.8990    8.2531 H         1 UNK         0.0806 
    113 H113       29.0649   33.7203    7.4876 H         1 UNK         0.0806 
    114 H114       28.9150   32.0327    7.9818 H         1 UNK         0.0806 
    115 H115       32.6282   32.0690    6.0932 H         1 UNK         0.3010 
    116 H116       34.4546   33.1565    5.6391 H         1 UNK         0.0829 
    117 H117       33.6452   35.1049    6.9651 H         1 UNK         0.0813 
    118 H118       34.6388   35.6164    5.6102 H         1 UNK         0.0813 
    119 H119       32.8951   35.7931    5.5253 H         1 UNK         0.0813 
    120 H120       31.7704   34.0924    3.5305 H         1 UNK         0.3038 
    121 H121       33.3096   34.6099    1.1697 H         1 UNK         0.0769 
    122 H122       30.9932   35.4483    1.4656 H         1 UNK         0.0811 
    123 H123       31.0868   34.4429    0.0276 H         1 UNK         0.0811 
    124 H124       30.3744   33.7981    1.4999 H         1 UNK         0.0811 
    125 H125       31.8674   31.6098    2.4898 H         1 UNK         0.3204 
    126 H126       33.4955   30.0305    0.5793 H         1 UNK         0.0748 
    127 H127       31.2912   30.1607   -0.5103 H         1 UNK         0.0771 
    128 H128       31.5298   28.5422    0.1286 H         1 UNK         0.0771 
    129 H129       30.4830   29.6793    0.9774 H         1 UNK         0.0771 
    130 H130       31.2541   29.8429    3.4223 H         1 UNK         0.2980 
    131 H131       32.5744   27.4541    4.4352 H         1 UNK         0.0545 
    132 H132       35.0016   28.8061    6.6217 H         1 UNK         0.3459 
    133 H133       34.4291   27.4344    5.7089 H         1 UNK         0.3459 
    134 H134       31.0437   27.7728    6.4068 H         1 UNK         0.0616 
    135 H135       30.4456   29.2499    5.7014 H         1 UNK         0.0616 
    136 H136       28.9566   26.3132    6.5458 H         1 UNK         0.0634 
    137 H137       30.2369   25.4062    5.7651 H         1 UNK         0.0634 
@<TRIPOS>BOND
     1    1    2 1    
     2    1   72 1    
     3    1   73 1    
     4    1   74 1    
     5    2    3 2    
     6    2    4 am   BACKBONE|DICT|INTERRES
     7    4    5 1    
     8    4   75 1    
     9    5    6 1    
    10    5   35 1    
    11    5   76 1    
    12    6    7 1    
    13    6   77 1    
    14    6   78 1    
    15    7    8 1    
    16    8    9 1    
    17    8   79 1    
    18    8   80 1    
    19    9   10 ar   
    20    9   14 ar   
    21   10   11 ar   
    22   10   81 1    
    23   11   12 ar   
    24   11   71 1    
    25   12   13 ar   
    26   12   82 1    
    27   13   14 ar   
    28   13   15 1    
    29   14   83 1    
    30   15   16 1    
    31   15   84 1    
    32   15   85 1    
    33   16   17 1    
    34   17   18 1    
    35   17   86 1    
    36   17   87 1    
    37   18   19 1    
    38   18   37 1    
    39   18   88 1    
    40   19   20 am   BACKBONE|DICT|INTERRES
    41   19   89 1    
    42   20   21 2    
    43   20   22 1    
    44   22   23 1    
    45   22   24 1    
    46   22   90 1    
    47   23   91 1    
    48   23   92 1    
    49   23   93 1    
    50   24   25 am   BACKBONE|DICT|INTERRES
    51   24   94 1    
    52   25   26 2    
    53   25   27 1    
    54   27   28 1    
    55   27   29 1    
    56   27   95 1    
    57   28   96 1    
    58   28   97 1    
    59   28   98 1    
    60   29   30 am   BACKBONE|DICT|INTERRES
    61   29   99 1    
    62   30   31 2    
    63   30   32 1    
    64   32   33 1    
    65   32   34 1    
    66   32  100 1    
    67   33  101 1    
    68   33  102 1    
    69   33  103 1    
    70   34   35 am   BACKBONE|DICT|INTERRES
    71   34  104 1    
    72   35   36 2    
    73   37   38 2    
    74   37   39 am   BACKBONE|DICT|INTERRES
    75   39   40 1    
    76   39  105 1    
    77   40   41 1    
    78   40   42 1    
    79   40  106 1    
    80   41  107 1    
    81   41  108 1    
    82   41  109 1    
    83   42   43 2    
    84   42   44 am   BACKBONE|DICT|INTERRES
    85   44   45 1    
    86   44  110 1    
    87   45   46 1    
    88   45   47 1    
    89   45  111 1    
    90   46  112 1    
    91   46  113 1    
    92   46  114 1    
    93   47   48 2    
    94   47   49 am   BACKBONE|DICT|INTERRES
    95   49   50 1    
    96   49  115 1    
    97   50   51 1    
    98   50   52 1    
    99   50  116 1    
   100   51  117 1    
   101   51  118 1    
   102   51  119 1    
   103   52   53 2    
   104   52   54 am   BACKBONE|DICT|INTERRES
   105   54   55 1    
   106   54  120 1    
   107   55   56 1    
   108   55   57 1    
   109   55  121 1    
   110   56  122 1    
   111   56  123 1    
   112   56  124 1    
   113   57   58 2    
   114   57   59 am   BACKBONE|DICT|INTERRES
   115   59   60 1    
   116   59  125 1    
   117   60   61 1    
   118   60   62 1    
   119   60  126 1    
   120   61  127 1    
   121   61  128 1    
   122   61  129 1    
   123   62   63 2    
   124   62   64 am   BACKBONE|DICT|INTERRES
   125   64   65 1    
   126   64  130 1    
   127   65   66 1    
   128   65   69 1    
   129   65  131 1    
   130   66   67 am   BACKBONE|DICT|INTERRES
   131   66   68 2    
   132   67  132 1    
   133   67  133 1    
   134   69   70 1    
   135   69  134 1    
   136   69  135 1    
   137   70   71 1    
   138   71  136 1    
   139   71  137 1    
@<TRIPOS>SUBSTRUCTURE
     1 UNK         1 GROUP             0       ****    0 ROOT    
