@<TRIPOS>MOLECULE
3R136
137   139    1
SMALL
USER_CHARGES


@<TRIPOS>ATOM
      1 CA         31.9221   20.8280   -4.6153 C.3       0 UNK        -0.1979 
      2 C          32.0909   21.3068   -3.1807 C.2       0 UNK         0.4864 
      3 O          33.1506   21.8305   -2.8320 O.2       0 UNK        -0.5359 
      4 N          31.0589   21.1240   -2.3464 N.am      1 UNK        -0.4318 
      5 CA         31.0177   21.5850   -0.9551 C.3       1 UNK         0.0824 
      6 C6         29.9461   20.8092   -0.1444 C.3       12 UNK        -0.0944 
      7 S7         30.3390   20.7583    1.6371 S.3       12 UNK        -0.2672 
      8 C8         29.0191   21.7950    2.3639 C.3       12 UNK         0.0333 
      9 C9         29.4702   22.6565    3.5457 C.ar      12 UNK        -0.0807 
     10 C10        30.5346   22.2905    4.3786 C.ar      12 UNK        -0.0894 
     11 C11        30.9434   23.1249    5.4220 C.ar      12 UNK        -0.0804 
     12 C12        30.2647   24.3229    5.6541 C.ar      12 UNK        -0.0824 
     13 C13        29.1835   24.6983    4.8520 C.ar      12 UNK        -0.0762 
     14 C14        28.7948   23.8538    3.8027 C.ar      12 UNK        -0.0782 
     15 C15        28.5119   26.0450    5.1286 C.3       12 UNK         0.0230 
     16 S16        26.9036   26.3183    4.3051 S.3       12 UNK        -0.2608 
     17 C17        26.6004   28.0596    4.7487 C.3       12 UNK        -0.0989 
     18 CA         27.3485   29.0570    3.8269 C.3       5 UNK         0.0716 
     19 N          26.9615   28.9154    2.4200 N.am      5 UNK        -0.4135 
     20 C          27.3959   29.6251    1.3677 C.2       4 UNK         0.5031 
     21 O          28.1086   30.6306    1.4480 O.2       4 UNK        -0.5229 
     22 CA         26.9823   29.1024   -0.0247 C.3       4 UNK         0.0329 
     23 CB         27.6314   29.9015   -1.1699 C.3       4 UNK        -0.2001 
     24 N          27.3181   27.6846   -0.1919 N.am      4 UNK        -0.4303 
     25 C          26.6088   26.6618    0.3023 C.2       3 UNK         0.5044 
     26 O          25.5382   26.8101    0.8933 O.2       3 UNK        -0.5152 
     27 CA         27.1866   25.2432    0.1522 C.3       3 UNK         0.0319 
     28 CB         26.5123   24.5087   -1.0171 C.3       3 UNK        -0.2001 
     29 N          28.6427   25.1524   -0.0089 N.am      3 UNK        -0.4354 
     30 C          29.5795   25.5935    0.8425 C.2       2 UNK         0.4964 
     31 O          29.3305   26.3148    1.8062 O.2       2 UNK        -0.5047 
     32 CA         31.0351   25.1390    0.5831 C.3       2 UNK         0.0288 
     33 CB         31.9552   25.4308    1.7857 C.3       2 UNK        -0.2113 
     34 N          31.1594   23.7121    0.2598 N.am      2 UNK        -0.4145 
     35 C          30.8014   23.1129   -0.8835 C.2       1 UNK         0.5006 
     36 O          30.2779   23.7126   -1.8276 O.2       1 UNK        -0.5103 
     37 C          27.1895   30.4974    4.3443 C.2       5 UNK         0.5055 
     38 O          26.0643   30.9352    4.5920 O.2       5 UNK        -0.5220 
     39 N          28.3243   31.1995    4.4658 N.am      6 UNK        -0.4450 
     40 CA         28.4958   32.5987    4.8787 C.3       6 UNK         0.0367 
     41 CB         27.9483   32.8372    6.3013 C.3       6 UNK        -0.1929 
     42 C          27.9571   33.6347    3.8704 C.2       6 UNK         0.5070 
     43 O          28.0672   34.8336    4.1305 O.2       6 UNK        -0.5237 
     44 N          27.4192   33.1773    2.7331 N.am      7 UNK        -0.4739 
     45 CA         27.0007   34.0103    1.6083 C.3       7 UNK         0.0276 
     46 CB         25.8140   33.3476    0.8895 C.3       7 UNK        -0.1927 
     47 C          28.1719   34.2324    0.6424 C.2       7 UNK         0.5013 
     48 O          28.3489   35.3514    0.1590 O.2       7 UNK        -0.5193 
     49 N          28.9577   33.1743    0.3977 N.am      8 UNK        -0.4253 
     50 CA         30.1504   33.2098   -0.4505 C.3       8 UNK         0.0242 
     51 CB         29.7515   33.0606   -1.9319 C.3       8 UNK        -0.2000 
     52 C          31.2206   32.1757   -0.0615 C.2       8 UNK         0.4948 
     53 O          32.3392   32.2875   -0.5666 O.2       8 UNK        -0.5275 
     54 N          30.9019   31.1941    0.7948 N.am      9 UNK        -0.4246 
     55 CA         31.8156   30.1225    1.1897 C.3       9 UNK         0.0261 
     56 CB         31.6264   28.9322    0.2312 C.3       9 UNK        -0.1959 
     57 C          31.5566   29.7065    2.6431 C.2       9 UNK         0.5033 
     58 O          30.5214   30.0586    3.2107 O.2       9 UNK        -0.5390 
     59 N          32.5006   28.9500    3.2093 N.am      10 UNK        -0.4215 
     60 CA         32.4520   28.3048    4.5200 C.3       10 UNK         0.0240 
     61 CB         32.3971   29.3472    5.6579 C.3       10 UNK        -0.1982 
     62 C          33.7064   27.4295    4.6521 C.2       10 UNK         0.4970 
     63 O          34.6664   27.6311    3.9023 O.2       10 UNK        -0.4916 
     64 N          33.6932   26.5018    5.6166 N.am      11 UNK        -0.4279 
     65 CA         34.8686   25.6973    5.9989 C.3       11 UNK         0.1003 
     66 C          35.9036   26.4613    6.8788 C.2       11 UNK         0.5709 
     67 N          35.6062   27.6528    7.3851 N.am      11 UNK        -0.7358 
     68 O          37.0068   25.9659    7.0971 O.2       11 UNK        -0.4999 
     69 C69        34.4620   24.3522    6.6577 C.3       12 UNK        -0.0954 
     70 S70        33.6915   23.2064    5.4651 S.3       12 UNK        -0.2268 
     71 C71        32.1336   22.7365    6.2819 C.3       12 UNK         0.0203 
     72 H72        32.0277   21.6653   -5.3045 H         1 UNK         0.0888 
     73 H73        32.6853   20.0887   -4.8568 H         1 UNK         0.0888 
     74 H74        30.9455   20.3735   -4.7815 H         1 UNK         0.0888 
     75 H75        30.2039   20.7195   -2.7004 H         1 UNK         0.3017 
     76 H76        31.9987   21.3715   -0.5234 H         1 UNK         0.0873 
     77 H77        28.9413   21.1988   -0.3198 H         1 UNK         0.0745 
     78 H78        29.9153   19.7689   -0.4731 H         1 UNK         0.0745 
     79 H79        28.2016   21.1491    2.6862 H         1 UNK         0.0705 
     80 H80        28.6122   22.4463    1.5891 H         1 UNK         0.0705 
     81 H81        31.0680   21.3656    4.2104 H         1 UNK         0.1334 
     82 H82        30.5866   24.9711    6.4576 H         1 UNK         0.1417 
     83 H83        27.9780   24.1385    3.1568 H         1 UNK         0.1562 
     84 H84        29.2026   26.8272    4.8131 H         1 UNK         0.0748 
     85 H85        28.3708   26.1638    6.2040 H         1 UNK         0.0748 
     86 H86        26.8863   28.2054    5.7926 H         1 UNK         0.0940 
     87 H87        25.5238   28.2361    4.7054 H         1 UNK         0.0940 
     88 H88        28.4073   28.8019    3.8702 H         1 UNK         0.0703 
     89 H89        26.3819   28.1092    2.2146 H         1 UNK         0.3081 
     90 H90        25.9002   29.2244   -0.1064 H         1 UNK         0.0719 
     91 H91        28.7203   29.8499   -1.1308 H         1 UNK         0.0809 
     92 H92        27.3124   29.5306   -2.1439 H         1 UNK         0.0809 
     93 H93        27.3495   30.9537   -1.1206 H         1 UNK         0.0809 
     94 H94        28.2050   27.4750   -0.6251 H         1 UNK         0.2990 
     95 H95        26.9374   24.7100    1.0712 H         1 UNK         0.0690 
     96 H96        26.7592   24.9673   -1.9756 H         1 UNK         0.0788 
     97 H97        25.4260   24.5250   -0.9169 H         1 UNK         0.0788 
     98 H98        26.8161   23.4624   -1.0573 H         1 UNK         0.0788 
     99 H99        28.9760   24.6111   -0.8024 H         1 UNK         0.2993 
    100 H100       31.3971   25.7162   -0.2702 H         1 UNK         0.0949 
    101 H101       31.6587   24.8585    2.6664 H         1 UNK         0.0767 
    102 H102       32.9948   25.1904    1.5629 H         1 UNK         0.0767 
    103 H103       31.9213   26.4826    2.0637 H         1 UNK         0.0767 
    104 H104       31.5157   23.1270    1.0029 H         1 UNK         0.3013 
    105 H105       29.1752   30.7534    4.1122 H         1 UNK         0.3121 
    106 H106       29.5747   32.7573    4.9133 H         1 UNK         0.0774 
    107 H107       28.2177   33.8309    6.6610 H         1 UNK         0.0815 
    108 H108       26.8609   32.7671    6.3364 H         1 UNK         0.0815 
    109 H109       28.3560   32.1164    7.0098 H         1 UNK         0.0815 
    110 H110       27.4169   32.1749    2.5812 H         1 UNK         0.2987 
    111 H111       26.6739   34.9860    1.9753 H         1 UNK         0.0949 
    112 H112       25.4764   33.9592    0.0517 H         1 UNK         0.0806 
    113 H113       26.0717   32.3657    0.4931 H         1 UNK         0.0806 
    114 H114       24.9656   33.2231    1.5625 H         1 UNK         0.0806 
    115 H115       28.7068   32.2823    0.8151 H         1 UNK         0.3010 
    116 H116       30.6282   34.1841   -0.3252 H         1 UNK         0.0829 
    117 H117       29.0612   33.8453   -2.2416 H         1 UNK         0.0813 
    118 H118       30.6254   33.1289   -2.5811 H         1 UNK         0.0813 
    119 H119       29.2772   32.0999   -2.1280 H         1 UNK         0.0813 
    120 H120       29.9816   31.1301    1.2206 H         1 UNK         0.3038 
    121 H121       32.8476   30.4753    1.1305 H         1 UNK         0.0769 
    122 H122       30.6320   28.4953    0.3323 H         1 UNK         0.0811 
    123 H123       32.3572   28.1478    0.4263 H         1 UNK         0.0811 
    124 H124       31.7546   29.2337   -0.8084 H         1 UNK         0.0811 
    125 H125       33.3429   28.7224    2.6928 H         1 UNK         0.3204 
    126 H126       31.5700   27.6623    4.5571 H         1 UNK         0.0748 
    127 H127       32.4126   28.8673    6.6369 H         1 UNK         0.0771 
    128 H128       33.2446   30.0324    5.6144 H         1 UNK         0.0771 
    129 H129       31.4858   29.9434    5.6192 H         1 UNK         0.0771 
    130 H130       32.8738   26.3937    6.1942 H         1 UNK         0.2980 
    131 H131       35.4113   25.4512    5.0838 H         1 UNK         0.0545 
    132 H132       36.2923   28.1321    7.9468 H         1 UNK         0.3459 
    133 H133       34.7092   28.0758    7.2158 H         1 UNK         0.3459 
    134 H134       33.8058   24.5324    7.5098 H         1 UNK         0.0616 
    135 H135       35.3361   23.8343    7.0572 H         1 UNK         0.0616 
    136 H136       32.0503   23.1870    7.2713 H         1 UNK         0.0634 
    137 H137       32.1354   21.6575    6.4435 H         1 UNK         0.0634 
@<TRIPOS>BOND
     1    1    2 1    
     2    1   72 1    
     3    1   73 1    
     4    1   74 1    
     5    2    3 2    
     6    2    4 am   BACKBONE|DICT|INTERRES
     7    4    5 1    
     8    4   75 1    
     9    5    6 1    
    10    5   35 1    
    11    5   76 1    
    12    6    7 1    
    13    6   77 1    
    14    6   78 1    
    15    7    8 1    
    16    8    9 1    
    17    8   79 1    
    18    8   80 1    
    19    9   10 ar   
    20    9   14 ar   
    21   10   11 ar   
    22   10   81 1    
    23   11   12 ar   
    24   11   71 1    
    25   12   13 ar   
    26   12   82 1    
    27   13   14 ar   
    28   13   15 1    
    29   14   83 1    
    30   15   16 1    
    31   15   84 1    
    32   15   85 1    
    33   16   17 1    
    34   17   18 1    
    35   17   86 1    
    36   17   87 1    
    37   18   19 1    
    38   18   37 1    
    39   18   88 1    
    40   19   20 am   BACKBONE|DICT|INTERRES
    41   19   89 1    
    42   20   21 2    
    43   20   22 1    
    44   22   23 1    
    45   22   24 1    
    46   22   90 1    
    47   23   91 1    
    48   23   92 1    
    49   23   93 1    
    50   24   25 am   BACKBONE|DICT|INTERRES
    51   24   94 1    
    52   25   26 2    
    53   25   27 1    
    54   27   28 1    
    55   27   29 1    
    56   27   95 1    
    57   28   96 1    
    58   28   97 1    
    59   28   98 1    
    60   29   30 am   BACKBONE|DICT|INTERRES
    61   29   99 1    
    62   30   31 2    
    63   30   32 1    
    64   32   33 1    
    65   32   34 1    
    66   32  100 1    
    67   33  101 1    
    68   33  102 1    
    69   33  103 1    
    70   34   35 am   BACKBONE|DICT|INTERRES
    71   34  104 1    
    72   35   36 2    
    73   37   38 2    
    74   37   39 am   BACKBONE|DICT|INTERRES
    75   39   40 1    
    76   39  105 1    
    77   40   41 1    
    78   40   42 1    
    79   40  106 1    
    80   41  107 1    
    81   41  108 1    
    82   41  109 1    
    83   42   43 2    
    84   42   44 am   BACKBONE|DICT|INTERRES
    85   44   45 1    
    86   44  110 1    
    87   45   46 1    
    88   45   47 1    
    89   45  111 1    
    90   46  112 1    
    91   46  113 1    
    92   46  114 1    
    93   47   48 2    
    94   47   49 am   BACKBONE|DICT|INTERRES
    95   49   50 1    
    96   49  115 1    
    97   50   51 1    
    98   50   52 1    
    99   50  116 1    
   100   51  117 1    
   101   51  118 1    
   102   51  119 1    
   103   52   53 2    
   104   52   54 am   BACKBONE|DICT|INTERRES
   105   54   55 1    
   106   54  120 1    
   107   55   56 1    
   108   55   57 1    
   109   55  121 1    
   110   56  122 1    
   111   56  123 1    
   112   56  124 1    
   113   57   58 2    
   114   57   59 am   BACKBONE|DICT|INTERRES
   115   59   60 1    
   116   59  125 1    
   117   60   61 1    
   118   60   62 1    
   119   60  126 1    
   120   61  127 1    
   121   61  128 1    
   122   61  129 1    
   123   62   63 2    
   124   62   64 am   BACKBONE|DICT|INTERRES
   125   64   65 1    
   126   64  130 1    
   127   65   66 1    
   128   65   69 1    
   129   65  131 1    
   130   66   67 am   BACKBONE|DICT|INTERRES
   131   66   68 2    
   132   67  132 1    
   133   67  133 1    
   134   69   70 1    
   135   69  134 1    
   136   69  135 1    
   137   70   71 1    
   138   71  136 1    
   139   71  137 1    
@<TRIPOS>SUBSTRUCTURE
     1 UNK         1 GROUP             0       ****    0 ROOT    
