@<TRIPOS>MOLECULE
3R136
137   139    1
SMALL
USER_CHARGES


@<TRIPOS>ATOM
      1 CA         31.2214   26.6241    1.8208 C.3       0 UNK        -0.1979 
      2 C          30.1852   25.7237    1.1703 C.2       0 UNK         0.4864 
      3 O          29.0824   26.1779    0.8582 O.2       0 UNK        -0.5359 
      4 N          30.5227   24.4474    0.9433 N.am      1 UNK        -0.4318 
      5 CA         29.6236   23.4417    0.3604 C.3       1 UNK         0.0824 
      6 C6         30.1791   22.0003    0.4804 C.3       12 UNK        -0.0944 
      7 S7         30.7531   21.4994    2.1400 S.3       12 UNK        -0.2672 
      8 C8         29.3417   21.8881    3.2396 C.3       12 UNK         0.0333 
      9 C9         29.5288   23.1038    4.1553 C.ar      12 UNK        -0.0807 
     10 C10        30.7815   23.6920    4.3862 C.ar      12 UNK        -0.0894 
     11 C11        30.9246   24.7483    5.2900 C.ar      12 UNK        -0.0804 
     12 C12        29.8040   25.2177    5.9781 C.ar      12 UNK        -0.0824 
     13 C13        28.5475   24.6494    5.7609 C.ar      12 UNK        -0.0762 
     14 C14        28.4154   23.5993    4.8452 C.ar      12 UNK        -0.0782 
     15 C15        27.3498   25.1520    6.5542 C.3       12 UNK         0.0230 
     16 S16        26.7207   26.7324    5.9062 S.3       12 UNK        -0.2608 
     17 C17        25.8809   26.1861    4.3843 C.3       12 UNK        -0.0989 
     18 CA         26.7047   26.5015    3.1036 C.3       5 UNK         0.0716 
     19 N          26.4600   25.5776    1.9920 N.am      5 UNK        -0.4135 
     20 C          25.2674   25.2107    1.5024 C.2       4 UNK         0.5031 
     21 O          24.1846   25.5249    2.0003 O.2       4 UNK        -0.5229 
     22 CA         25.3044   24.3440    0.2286 C.3       4 UNK         0.0329 
     23 CB         23.9115   23.8184   -0.1790 C.3       4 UNK        -0.2001 
     24 N          25.9416   25.0210   -0.9077 N.am      4 UNK        -0.4303 
     25 C          25.6116   26.2081   -1.4461 C.2       3 UNK         0.5044 
     26 O          24.7179   26.9388   -1.0178 O.2       3 UNK        -0.5152 
     27 CA         26.4126   26.6425   -2.6850 C.3       3 UNK         0.0319 
     28 CB         26.3474   28.1582   -2.9551 C.3       3 UNK        -0.2001 
     29 N          27.8051   26.2003   -2.5795 N.am      3 UNK        -0.4354 
     30 C          28.4785   25.5772   -3.5559 C.2       2 UNK         0.4964 
     31 O          28.0486   25.4302   -4.7008 O.2       2 UNK        -0.5047 
     32 CA         29.8560   24.9858   -3.1998 C.3       2 UNK         0.0288 
     33 CB         30.9705   25.9817   -3.5616 C.3       2 UNK        -0.2113 
     34 N          30.0215   24.5757   -1.7996 N.am      2 UNK        -0.4145 
     35 C          29.2355   23.7349   -1.1068 C.2       1 UNK         0.5006 
     36 O          28.2168   23.2164   -1.5662 O.2       1 UNK        -0.5103 
     37 C          26.5777   27.9500    2.5893 C.2       5 UNK         0.5055 
     38 O          25.6985   28.6988    3.0199 O.2       5 UNK        -0.5220 
     39 N          27.4472   28.2856    1.6247 N.am      6 UNK        -0.4450 
     40 CA         27.5085   29.5602    0.9078 C.3       6 UNK         0.0367 
     41 CB         28.6297   29.4864   -0.1456 C.3       6 UNK        -0.1929 
     42 C          27.7199   30.7679    1.8356 C.2       6 UNK         0.5070 
     43 O          26.9354   31.7160    1.7915 O.2       6 UNK        -0.5237 
     44 N          28.7715   30.6957    2.6582 N.am      7 UNK        -0.4739 
     45 CA         29.1982   31.6922    3.6365 C.3       7 UNK         0.0276 
     46 CB         29.6273   33.0027    2.9420 C.3       7 UNK        -0.1927 
     47 C          30.3881   31.1063    4.4006 C.2       7 UNK         0.5013 
     48 O          31.1065   30.2700    3.8477 O.2       7 UNK        -0.5193 
     49 N          30.6332   31.6054    5.6192 N.am      8 UNK        -0.4253 
     50 CA         31.7959   31.2390    6.4398 C.3       8 UNK         0.0242 
     51 CB         31.6628   31.8743    7.8330 C.3       8 UNK        -0.2000 
     52 C          33.1444   31.6192    5.7982 C.2       8 UNK         0.4948 
     53 O          34.1401   30.9366    6.0336 O.2       8 UNK        -0.5275 
     54 N          33.1468   32.6731    4.9688 N.am      9 UNK        -0.4246 
     55 CA         34.2914   33.0947    4.1586 C.3       9 UNK         0.0261 
     56 CB         34.0097   34.4853    3.5669 C.3       9 UNK        -0.1959 
     57 C          34.6448   32.0971    3.0397 C.2       9 UNK         0.5033 
     58 O          35.8194   31.9870    2.6861 O.2       9 UNK        -0.5390 
     59 N          33.6421   31.3773    2.5124 N.am      10 UNK        -0.4215 
     60 CA         33.8187   30.3566    1.4749 C.3       10 UNK         0.0240 
     61 CB         32.4822   30.1202    0.7532 C.3       10 UNK        -0.1982 
     62 C          34.3873   29.0383    2.0298 C.2       10 UNK         0.4970 
     63 O          34.9499   28.2599    1.2595 O.2       10 UNK        -0.4916 
     64 N          34.2513   28.8181    3.3439 N.am      11 UNK        -0.4279 
     65 CA         34.8475   27.6921    4.0777 C.3       11 UNK         0.1003 
     66 C          36.3891   27.8006    4.2743 C.2       11 UNK         0.5709 
     67 N          37.0279   28.9292    3.9844 N.am      11 UNK        -0.7358 
     68 O          37.0216   26.8322    4.6890 O.2       11 UNK        -0.4999 
     69 C69        34.1336   27.4525    5.4338 C.3       12 UNK        -0.0954 
     70 S70        32.3501   27.1328    5.2379 S.3       12 UNK        -0.2268 
     71 C71        32.2988   25.3441    5.5613 C.3       12 UNK         0.0203 
     72 H72        31.6848   27.2612    1.0697 H         1 UNK         0.0888 
     73 H73        30.7532   27.2606    2.5715 H         1 UNK         0.0888 
     74 H74        32.0055   26.0479    2.3115 H         1 UNK         0.0888 
     75 H75        31.4322   24.1088    1.2240 H         1 UNK         0.3017 
     76 H76        28.6919   23.4897    0.9254 H         1 UNK         0.0873 
     77 H77        29.4221   21.2792    0.1648 H         1 UNK         0.0745 
     78 H78        31.0219   21.8644   -0.2006 H         1 UNK         0.0745 
     79 H79        28.4305   21.9959    2.6507 H         1 UNK         0.0705 
     80 H80        29.1792   21.0190    3.8784 H         1 UNK         0.0705 
     81 H81        31.6630   23.3171    3.8875 H         1 UNK         0.1334 
     82 H82        29.9120   26.0250    6.6900 H         1 UNK         0.1417 
     83 H83        27.4456   23.1457    4.6906 H         1 UNK         0.1562 
     84 H84        27.6443   25.2958    7.5949 H         1 UNK         0.0748 
     85 H85        26.5497   24.4103    6.5701 H         1 UNK         0.0748 
     86 H86        24.8877   26.6373    4.3455 H         1 UNK         0.0940 
     87 H87        25.7016   25.1129    4.4568 H         1 UNK         0.0940 
     88 H88        27.7580   26.3576    3.3523 H         1 UNK         0.0703 
     89 H89        27.2900   25.3449    1.4602 H         1 UNK         0.3081 
     90 H90        25.9246   23.4766    0.4609 H         1 UNK         0.0719 
     91 H91        23.4557   23.2498    0.6327 H         1 UNK         0.0809 
     92 H92        23.2286   24.6309   -0.4302 H         1 UNK         0.0809 
     93 H93        23.9750   23.1557   -1.0420 H         1 UNK         0.0809 
     94 H94        26.6872   24.4933   -1.3523 H         1 UNK         0.2990 
     95 H95        25.9325   26.1385   -3.5265 H         1 UNK         0.0690 
     96 H96        26.6516   28.7418   -2.0884 H         1 UNK         0.0788 
     97 H97        25.3295   28.4622   -3.2022 H         1 UNK         0.0788 
     98 H98        26.9813   28.4420   -3.7952 H         1 UNK         0.0788 
     99 H99        28.2366   26.2803   -1.6678 H         1 UNK         0.2993 
    100 H100       29.9835   24.0902   -3.8115 H         1 UNK         0.0949 
    101 H101       30.8949   26.2916   -4.6051 H         1 UNK         0.0767 
    102 H102       30.9198   26.8833   -2.9494 H         1 UNK         0.0767 
    103 H103       31.9582   25.5394   -3.4294 H         1 UNK         0.0767 
    104 H104       30.8258   24.9526   -1.3203 H         1 UNK         0.3013 
    105 H105       28.1095   27.5713    1.3228 H         1 UNK         0.3121 
    106 H106       26.5547   29.6902    0.3925 H         1 UNK         0.0774 
    107 H107       29.6139   29.4007    0.3136 H         1 UNK         0.0815 
    108 H108       28.6376   30.3804   -0.7704 H         1 UNK         0.0815 
    109 H109       28.5110   28.6269   -0.8034 H         1 UNK         0.0815 
    110 H110       29.3641   29.8745    2.6374 H         1 UNK         0.2987 
    111 H111       28.3773   31.8808    4.3314 H         1 UNK         0.0949 
    112 H112       30.4123   32.8288    2.2047 H         1 UNK         0.0806 
    113 H113       28.7930   33.4824    2.4309 H         1 UNK         0.0806 
    114 H114       30.0090   33.7265    3.6629 H         1 UNK         0.0806 
    115 H115       30.0026   32.2942    6.0049 H         1 UNK         0.3010 
    116 H116       31.7897   30.1526    6.5557 H         1 UNK         0.0829 
    117 H117       32.5043   31.5964    8.4694 H         1 UNK         0.0813 
    118 H118       31.6392   32.9636    7.7815 H         1 UNK         0.0813 
    119 H119       30.7553   31.5407    8.3367 H         1 UNK         0.0813 
    120 H120       32.2903   33.1950    4.8572 H         1 UNK         0.3038 
    121 H121       35.1599   33.1719    4.8165 H         1 UNK         0.0769 
    122 H122       33.1377   34.4785    2.9114 H         1 UNK         0.0811 
    123 H123       34.8576   34.8363    2.9768 H         1 UNK         0.0811 
    124 H124       33.8363   35.2230    4.3506 H         1 UNK         0.0811 
    125 H125       32.7132   31.4604    2.9054 H         1 UNK         0.3204 
    126 H126       34.5327   30.7343    0.7397 H         1 UNK         0.0748 
    127 H127       32.6057   29.4229   -0.0764 H         1 UNK         0.0771 
    128 H128       31.7325   29.6999    1.4219 H         1 UNK         0.0771 
    129 H129       32.0822   31.0465    0.3403 H         1 UNK         0.0771 
    130 H130       33.7539   29.4937    3.9058 H         1 UNK         0.2980 
    131 H131       34.6934   26.7974    3.4714 H         1 UNK         0.0545 
    132 H132       38.0260   28.9765    4.1143 H         1 UNK         0.3459 
    133 H133       36.5250   29.7342    3.6426 H         1 UNK         0.3459 
    134 H134       34.5868   26.6142    5.9661 H         1 UNK         0.0616 
    135 H135       34.2531   28.3173    6.0869 H         1 UNK         0.0616 
    136 H136       32.5697   25.1592    6.6017 H         1 UNK         0.0634 
    137 H137       33.0573   24.8553    4.9477 H         1 UNK         0.0634 
@<TRIPOS>BOND
     1    1    2 1    
     2    1   72 1    
     3    1   73 1    
     4    1   74 1    
     5    2    3 2    
     6    2    4 am   BACKBONE|DICT|INTERRES
     7    4    5 1    
     8    4   75 1    
     9    5    6 1    
    10    5   35 1    
    11    5   76 1    
    12    6    7 1    
    13    6   77 1    
    14    6   78 1    
    15    7    8 1    
    16    8    9 1    
    17    8   79 1    
    18    8   80 1    
    19    9   10 ar   
    20    9   14 ar   
    21   10   11 ar   
    22   10   81 1    
    23   11   12 ar   
    24   11   71 1    
    25   12   13 ar   
    26   12   82 1    
    27   13   14 ar   
    28   13   15 1    
    29   14   83 1    
    30   15   16 1    
    31   15   84 1    
    32   15   85 1    
    33   16   17 1    
    34   17   18 1    
    35   17   86 1    
    36   17   87 1    
    37   18   19 1    
    38   18   37 1    
    39   18   88 1    
    40   19   20 am   BACKBONE|DICT|INTERRES
    41   19   89 1    
    42   20   21 2    
    43   20   22 1    
    44   22   23 1    
    45   22   24 1    
    46   22   90 1    
    47   23   91 1    
    48   23   92 1    
    49   23   93 1    
    50   24   25 am   BACKBONE|DICT|INTERRES
    51   24   94 1    
    52   25   26 2    
    53   25   27 1    
    54   27   28 1    
    55   27   29 1    
    56   27   95 1    
    57   28   96 1    
    58   28   97 1    
    59   28   98 1    
    60   29   30 am   BACKBONE|DICT|INTERRES
    61   29   99 1    
    62   30   31 2    
    63   30   32 1    
    64   32   33 1    
    65   32   34 1    
    66   32  100 1    
    67   33  101 1    
    68   33  102 1    
    69   33  103 1    
    70   34   35 am   BACKBONE|DICT|INTERRES
    71   34  104 1    
    72   35   36 2    
    73   37   38 2    
    74   37   39 am   BACKBONE|DICT|INTERRES
    75   39   40 1    
    76   39  105 1    
    77   40   41 1    
    78   40   42 1    
    79   40  106 1    
    80   41  107 1    
    81   41  108 1    
    82   41  109 1    
    83   42   43 2    
    84   42   44 am   BACKBONE|DICT|INTERRES
    85   44   45 1    
    86   44  110 1    
    87   45   46 1    
    88   45   47 1    
    89   45  111 1    
    90   46  112 1    
    91   46  113 1    
    92   46  114 1    
    93   47   48 2    
    94   47   49 am   BACKBONE|DICT|INTERRES
    95   49   50 1    
    96   49  115 1    
    97   50   51 1    
    98   50   52 1    
    99   50  116 1    
   100   51  117 1    
   101   51  118 1    
   102   51  119 1    
   103   52   53 2    
   104   52   54 am   BACKBONE|DICT|INTERRES
   105   54   55 1    
   106   54  120 1    
   107   55   56 1    
   108   55   57 1    
   109   55  121 1    
   110   56  122 1    
   111   56  123 1    
   112   56  124 1    
   113   57   58 2    
   114   57   59 am   BACKBONE|DICT|INTERRES
   115   59   60 1    
   116   59  125 1    
   117   60   61 1    
   118   60   62 1    
   119   60  126 1    
   120   61  127 1    
   121   61  128 1    
   122   61  129 1    
   123   62   63 2    
   124   62   64 am   BACKBONE|DICT|INTERRES
   125   64   65 1    
   126   64  130 1    
   127   65   66 1    
   128   65   69 1    
   129   65  131 1    
   130   66   67 am   BACKBONE|DICT|INTERRES
   131   66   68 2    
   132   67  132 1    
   133   67  133 1    
   134   69   70 1    
   135   69  134 1    
   136   69  135 1    
   137   70   71 1    
   138   71  136 1    
   139   71  137 1    
@<TRIPOS>SUBSTRUCTURE
     1 UNK         1 GROUP             0       ****    0 ROOT    
