@<TRIPOS>MOLECULE
3R136
137   139    1
SMALL
USER_CHARGES


@<TRIPOS>ATOM
      1 CA         26.6116   21.9763    2.5151 C.3       0 UNK        -0.1979 
      2 C          27.4342   22.4701    1.3352 C.2       0 UNK         0.4864 
      3 O          27.5559   23.6830    1.1511 O.2       0 UNK        -0.5359 
      4 N          27.9840   21.5363    0.5407 N.am      1 UNK        -0.4318 
      5 CA         28.8518   21.7689   -0.6254 C.3       1 UNK         0.0824 
      6 C6         30.2387   22.3417   -0.2299 C.3       12 UNK        -0.0944 
      7 S7         31.2969   21.1369    0.6444 S.3       12 UNK        -0.2672 
      8 C8         31.0404   21.5431    2.4098 C.3       12 UNK         0.0333 
      9 C9         31.3306   22.9863    2.8301 C.ar      12 UNK        -0.0807 
     10 C10        32.1094   23.8631    2.0618 C.ar      12 UNK        -0.0894 
     11 C11        32.2884   25.1964    2.4425 C.ar      12 UNK        -0.0804 
     12 C12        31.7107   25.6369    3.6399 C.ar      12 UNK        -0.0824 
     13 C13        30.9549   24.7715    4.4355 C.ar      12 UNK        -0.0762 
     14 C14        30.7805   23.4463    4.0299 C.ar      12 UNK        -0.0782 
     15 C15        30.3251   25.2881    5.7261 C.3       12 UNK         0.0230 
     16 S16        28.5253   24.9861    5.8694 S.3       12 UNK        -0.2608 
     17 C17        27.8497   25.2699    4.1941 C.3       12 UNK        -0.0989 
     18 CA         28.2469   26.6046    3.5128 C.3       5 UNK         0.0716 
     19 N          28.2998   26.4437    2.0560 N.am      5 UNK        -0.4135 
     20 C          28.7852   27.3428    1.1878 C.2       4 UNK         0.5031 
     21 O          29.2934   28.4105    1.5255 O.2       4 UNK        -0.5229 
     22 CA         28.5933   27.0429   -0.3098 C.3       4 UNK         0.0329 
     23 CB         29.8574   26.3913   -0.8871 C.3       4 UNK        -0.2001 
     24 N          27.4133   26.2097   -0.5869 N.am      4 UNK        -0.4303 
     25 C          26.1526   26.5764   -0.2988 C.2       3 UNK         0.5044 
     26 O          25.8733   27.6817    0.1669 O.2       3 UNK        -0.5152 
     27 CA         25.0210   25.5422   -0.4628 C.3       3 UNK         0.0319 
     28 CB         23.7060   26.1779   -0.9632 C.3       3 UNK        -0.2001 
     29 N          25.3803   24.3543   -1.2430 N.am      3 UNK        -0.4354 
     30 C          25.6241   24.2676   -2.5590 C.2       2 UNK         0.4964 
     31 O          25.5459   25.2144   -3.3432 O.2       2 UNK        -0.5047 
     32 CA         26.0479   22.8701   -3.0619 C.3       2 UNK         0.0288 
     33 CB         26.6483   22.8972   -4.4846 C.3       2 UNK        -0.2113 
     34 N          26.9511   22.1804   -2.1253 N.am      2 UNK        -0.4145 
     35 C          28.1422   22.6288   -1.6951 C.2       1 UNK         0.5006 
     36 O          28.6441   23.6888   -2.0714 O.2       1 UNK        -0.5103 
     37 C          27.3808   27.7943    3.9915 C.2       5 UNK         0.5055 
     38 O          27.5425   28.2264    5.1328 O.2       5 UNK        -0.5220 
     39 N          26.5229   28.3567    3.1231 N.am      6 UNK        -0.4450 
     40 CA         25.8336   29.6281    3.3729 C.3       6 UNK         0.0367 
     41 CB         24.7107   29.8172    2.3409 C.3       6 UNK        -0.1929 
     42 C          26.7850   30.8434    3.3608 C.2       6 UNK         0.5070 
     43 O          26.4341   31.8815    3.9215 O.2       6 UNK        -0.5237 
     44 N          27.9663   30.6974    2.7445 N.am      7 UNK        -0.4739 
     45 CA         29.0320   31.6952    2.6778 C.3       7 UNK         0.0276 
     46 CB         29.3042   32.0357    1.2006 C.3       7 UNK        -0.1927 
     47 C          30.2875   31.1716    3.3967 C.2       7 UNK         0.5013 
     48 O          31.4019   31.3693    2.9092 O.2       7 UNK        -0.5193 
     49 N          30.0980   30.5323    4.5629 N.am      8 UNK        -0.4253 
     50 CA         31.1487   29.9187    5.3895 C.3       8 UNK         0.0242 
     51 CB         30.5236   29.3344    6.6658 C.3       8 UNK        -0.2000 
     52 C          32.3211   30.8481    5.7591 C.2       8 UNK         0.4948 
     53 O          33.4390   30.3635    5.9326 O.2       8 UNK        -0.5275 
     54 N          32.0631   32.1617    5.8300 N.am      9 UNK        -0.4246 
     55 CA         33.0716   33.2065    6.0229 C.3       9 UNK         0.0261 
     56 CB         32.3668   34.5546    6.2444 C.3       9 UNK        -0.1959 
     57 C          34.0891   33.3143    4.8694 C.2       9 UNK         0.5033 
     58 O          35.2213   33.7317    5.1176 O.2       9 UNK        -0.5390 
     59 N          33.6886   32.9400    3.6443 N.am      10 UNK        -0.4215 
     60 CA         34.5771   32.8596    2.4826 C.3       10 UNK         0.0240 
     61 CB         33.7653   33.0454    1.1896 C.3       10 UNK        -0.1982 
     62 C          35.3473   31.5297    2.4554 C.2       10 UNK         0.4970 
     63 O          36.5081   31.5181    2.0439 O.2       10 UNK        -0.4916 
     64 N          34.6965   30.4435    2.8939 N.am      11 UNK        -0.4279 
     65 CA         35.2955   29.1079    3.0383 C.3       11 UNK         0.1003 
     66 C          36.3819   29.0476    4.1464 C.2       11 UNK         0.5709 
     67 N          36.1443   29.6347    5.3128 N.am      11 UNK        -0.7358 
     68 O          37.4459   28.4678    3.9434 O.2       11 UNK        -0.4999 
     69 C69        34.2207   28.0170    3.2732 C.3       12 UNK        -0.0954 
     70 S70        33.0326   27.8981    1.8929 S.3       12 UNK        -0.2268 
     71 C71        33.0938   26.1109    1.5129 C.3       12 UNK         0.0203 
     72 H72        26.4202   20.9050    2.4587 H         1 UNK         0.0888 
     73 H73        27.1359   22.1795    3.4483 H         1 UNK         0.0888 
     74 H74        25.6513   22.4903    2.5445 H         1 UNK         0.0888 
     75 H75        27.8255   20.5625    0.7599 H         1 UNK         0.3017 
     76 H76        29.0166   20.7974   -1.0945 H         1 UNK         0.0873 
     77 H77        30.7994   22.6412   -1.1174 H         1 UNK         0.0745 
     78 H78        30.1164   23.2466    0.3634 H         1 UNK         0.0745 
     79 H79        31.6698   20.8805    3.0051 H         1 UNK         0.0705 
     80 H80        30.0093   21.2935    2.6631 H         1 UNK         0.0705 
     81 H81        32.5588   23.5217    1.1402 H         1 UNK         0.1334 
     82 H82        31.8291   26.6608    3.9592 H         1 UNK         0.1417 
     83 H83        30.1873   22.7792    4.6408 H         1 UNK         0.1562 
     84 H84        30.4996   26.3588    5.8357 H         1 UNK         0.0748 
     85 H85        30.8248   24.8160    6.5729 H         1 UNK         0.0748 
     86 H86        26.7645   25.1555    4.2267 H         1 UNK         0.0940 
     87 H87        28.2022   24.4322    3.5936 H         1 UNK         0.0940 
     88 H88        29.2617   26.8674    3.8054 H         1 UNK         0.0703 
     89 H89        27.9364   25.5697    1.6834 H         1 UNK         0.3081 
     90 H90        28.4442   27.9988   -0.8162 H         1 UNK         0.0719 
     91 H91        30.0702   25.4358   -0.4087 H         1 UNK         0.0809 
     92 H92        29.7633   26.2190   -1.9592 H         1 UNK         0.0809 
     93 H93        30.7275   27.0316   -0.7356 H         1 UNK         0.0809 
     94 H94        27.5877   25.2749   -0.9382 H         1 UNK         0.2990 
     95 H95        24.8313   25.1711    0.5455 H         1 UNK         0.0690 
     96 H96        23.8299   26.6576   -1.9343 H         1 UNK         0.0788 
     97 H97        23.3529   26.9427   -0.2703 H         1 UNK         0.0788 
     98 H98        22.9135   25.4349   -1.0527 H         1 UNK         0.0788 
     99 H99        25.5169   23.5166   -0.6953 H         1 UNK         0.2993 
    100 H100       25.1327   22.2772   -3.1041 H         1 UNK         0.0949 
    101 H101       27.5397   23.5232   -4.5373 H         1 UNK         0.0767 
    102 H102       26.9210   21.8963   -4.8191 H         1 UNK         0.0767 
    103 H103       25.9308   23.2936   -5.2042 H         1 UNK         0.0767 
    104 H104       26.6089   21.3076   -1.7464 H         1 UNK         0.3013 
    105 H105       26.4342   27.9748    2.1873 H         1 UNK         0.3121 
    106 H106       25.3774   29.5776    4.3639 H         1 UNK         0.0774 
    107 H107       24.1187   30.7043    2.5697 H         1 UNK         0.0815 
    108 H108       25.1071   29.9449    1.3329 H         1 UNK         0.0815 
    109 H109       24.0297   28.9661    2.3295 H         1 UNK         0.0815 
    110 H110       28.2057   29.7971    2.3351 H         1 UNK         0.2987 
    111 H111       28.7349   32.6126    3.1899 H         1 UNK         0.0949 
    112 H112       29.6606   31.1645    0.6488 H         1 UNK         0.0806 
    113 H113       28.4046   32.4016    0.7057 H         1 UNK         0.0806 
    114 H114       30.0631   32.8139    1.1093 H         1 UNK         0.0806 
    115 H115       29.1463   30.4000    4.8769 H         1 UNK         0.3010 
    116 H116       31.5628   29.0958    4.8053 H         1 UNK         0.0829 
    117 H117       31.2802   28.8526    7.2870 H         1 UNK         0.0813 
    118 H118       30.0471   30.1062    7.2714 H         1 UNK         0.0813 
    119 H119       29.7729   28.5800    6.4358 H         1 UNK         0.0813 
    120 H120       31.1125   32.4673    5.6823 H         1 UNK         0.3038 
    121 H121       33.6318   32.9605    6.9276 H         1 UNK         0.0769 
    122 H122       33.0930   35.3497    6.4202 H         1 UNK         0.0811 
    123 H123       31.7094   34.5221    7.1134 H         1 UNK         0.0811 
    124 H124       31.7691   34.8455    5.3795 H         1 UNK         0.0811 
    125 H125       32.7525   32.5616    3.5179 H         1 UNK         0.3204 
    126 H126       35.3079   33.6696    2.5363 H         1 UNK         0.0748 
    127 H127       34.4220   33.0601    0.3189 H         1 UNK         0.0771 
    128 H128       33.0466   32.2392    1.0386 H         1 UNK         0.0771 
    129 H129       33.2159   33.9869    1.1975 H         1 UNK         0.0771 
    130 H130       33.7351   30.5350    3.1886 H         1 UNK         0.2980 
    131 H131       35.7953   28.8767    2.0955 H         1 UNK         0.0545 
    132 H132       35.2299   30.0364    5.5063 H         1 UNK         0.3459 
    133 H133       36.8448   29.6048    6.0355 H         1 UNK         0.3459 
    134 H134       34.6958   27.0449    3.4170 H         1 UNK         0.0616 
    135 H135       33.6684   28.2174    4.1914 H         1 UNK         0.0616 
    136 H136       34.1331   25.7806    1.4921 H         1 UNK         0.0634 
    137 H137       32.7155   25.9850    0.4976 H         1 UNK         0.0634 
@<TRIPOS>BOND
     1    1    2 1    
     2    1   72 1    
     3    1   73 1    
     4    1   74 1    
     5    2    3 2    
     6    2    4 am   BACKBONE|DICT|INTERRES
     7    4    5 1    
     8    4   75 1    
     9    5    6 1    
    10    5   35 1    
    11    5   76 1    
    12    6    7 1    
    13    6   77 1    
    14    6   78 1    
    15    7    8 1    
    16    8    9 1    
    17    8   79 1    
    18    8   80 1    
    19    9   10 ar   
    20    9   14 ar   
    21   10   11 ar   
    22   10   81 1    
    23   11   12 ar   
    24   11   71 1    
    25   12   13 ar   
    26   12   82 1    
    27   13   14 ar   
    28   13   15 1    
    29   14   83 1    
    30   15   16 1    
    31   15   84 1    
    32   15   85 1    
    33   16   17 1    
    34   17   18 1    
    35   17   86 1    
    36   17   87 1    
    37   18   19 1    
    38   18   37 1    
    39   18   88 1    
    40   19   20 am   BACKBONE|DICT|INTERRES
    41   19   89 1    
    42   20   21 2    
    43   20   22 1    
    44   22   23 1    
    45   22   24 1    
    46   22   90 1    
    47   23   91 1    
    48   23   92 1    
    49   23   93 1    
    50   24   25 am   BACKBONE|DICT|INTERRES
    51   24   94 1    
    52   25   26 2    
    53   25   27 1    
    54   27   28 1    
    55   27   29 1    
    56   27   95 1    
    57   28   96 1    
    58   28   97 1    
    59   28   98 1    
    60   29   30 am   BACKBONE|DICT|INTERRES
    61   29   99 1    
    62   30   31 2    
    63   30   32 1    
    64   32   33 1    
    65   32   34 1    
    66   32  100 1    
    67   33  101 1    
    68   33  102 1    
    69   33  103 1    
    70   34   35 am   BACKBONE|DICT|INTERRES
    71   34  104 1    
    72   35   36 2    
    73   37   38 2    
    74   37   39 am   BACKBONE|DICT|INTERRES
    75   39   40 1    
    76   39  105 1    
    77   40   41 1    
    78   40   42 1    
    79   40  106 1    
    80   41  107 1    
    81   41  108 1    
    82   41  109 1    
    83   42   43 2    
    84   42   44 am   BACKBONE|DICT|INTERRES
    85   44   45 1    
    86   44  110 1    
    87   45   46 1    
    88   45   47 1    
    89   45  111 1    
    90   46  112 1    
    91   46  113 1    
    92   46  114 1    
    93   47   48 2    
    94   47   49 am   BACKBONE|DICT|INTERRES
    95   49   50 1    
    96   49  115 1    
    97   50   51 1    
    98   50   52 1    
    99   50  116 1    
   100   51  117 1    
   101   51  118 1    
   102   51  119 1    
   103   52   53 2    
   104   52   54 am   BACKBONE|DICT|INTERRES
   105   54   55 1    
   106   54  120 1    
   107   55   56 1    
   108   55   57 1    
   109   55  121 1    
   110   56  122 1    
   111   56  123 1    
   112   56  124 1    
   113   57   58 2    
   114   57   59 am   BACKBONE|DICT|INTERRES
   115   59   60 1    
   116   59  125 1    
   117   60   61 1    
   118   60   62 1    
   119   60  126 1    
   120   61  127 1    
   121   61  128 1    
   122   61  129 1    
   123   62   63 2    
   124   62   64 am   BACKBONE|DICT|INTERRES
   125   64   65 1    
   126   64  130 1    
   127   65   66 1    
   128   65   69 1    
   129   65  131 1    
   130   66   67 am   BACKBONE|DICT|INTERRES
   131   66   68 2    
   132   67  132 1    
   133   67  133 1    
   134   69   70 1    
   135   69  134 1    
   136   69  135 1    
   137   70   71 1    
   138   71  136 1    
   139   71  137 1    
@<TRIPOS>SUBSTRUCTURE
     1 UNK         1 GROUP             0       ****    0 ROOT    
