@<TRIPOS>MOLECULE
3R136
137   139    1
SMALL
USER_CHARGES


@<TRIPOS>ATOM
      1 CA         28.3423   28.6746   -2.1075 C.3       0 UNK        -0.1979 
      2 C          28.3298   27.3910   -1.2930 C.2       0 UNK         0.4864 
      3 O          27.3500   27.1187   -0.5996 O.2       0 UNK        -0.5359 
      4 N          29.4076   26.5976   -1.3634 N.am      1 UNK        -0.4318 
      5 CA         29.5673   25.3255   -0.6443 C.3       1 UNK         0.0824 
      6 C6         30.9747   24.7104   -0.8360 C.3       12 UNK        -0.0944 
      7 S7         32.3136   25.8504   -0.3472 S.3       12 UNK        -0.2672 
      8 C8         33.0635   24.9829    1.0662 C.3       12 UNK         0.0333 
      9 C9         32.2648   25.1741    2.3471 C.ar      12 UNK        -0.0807 
     10 C10        32.4455   26.3322    3.1100 C.ar      12 UNK        -0.0894 
     11 C11        31.7534   26.5054    4.3113 C.ar      12 UNK        -0.0804 
     12 C12        30.8769   25.5105    4.7491 C.ar      12 UNK        -0.0824 
     13 C13        30.6872   24.3470    3.9977 C.ar      12 UNK        -0.0762 
     14 C14        31.3808   24.1851    2.7935 C.ar      12 UNK        -0.0782 
     15 C15        29.7661   23.2502    4.5157 C.3       12 UNK         0.0230 
     16 S16        28.1574   23.2147    3.6636 S.3       12 UNK        -0.2608 
     17 C17        27.4525   24.8502    4.0722 C.3       12 UNK        -0.0989 
     18 CA         27.1428   25.6595    2.7835 C.3       5 UNK         0.0716 
     19 N          26.1214   25.0155    1.9458 N.am      5 UNK        -0.4135 
     20 C          24.8286   24.8462    2.2661 C.2       4 UNK         0.5031 
     21 O          24.3136   25.2714    3.3026 O.2       4 UNK        -0.5229 
     22 CA         23.9729   24.0426    1.2660 C.3       4 UNK         0.0329 
     23 CB         22.4667   24.0605    1.6057 C.3       4 UNK        -0.2001 
     24 N          24.1907   24.4388   -0.1283 N.am      4 UNK        -0.4303 
     25 C          24.0157   25.6507   -0.6754 C.2       3 UNK         0.5044 
     26 O          23.6009   26.6305   -0.0555 O.2       3 UNK        -0.5152 
     27 CA         24.3731   25.7801   -2.1707 C.3       3 UNK         0.0319 
     28 CB         24.4396   27.2461   -2.6395 C.3       3 UNK        -0.2001 
     29 N          25.6456   25.1225   -2.4821 N.am      3 UNK        -0.4354 
     30 C          25.8072   23.8151   -2.7324 C.2       2 UNK         0.4964 
     31 O          24.8752   23.0114   -2.7526 O.2       2 UNK        -0.5047 
     32 CA         27.2412   23.3020   -2.9546 C.3       2 UNK         0.0288 
     33 CB         27.5276   23.1456   -4.4568 C.3       2 UNK        -0.2113 
     34 N          28.2713   24.1544   -2.3558 N.am      2 UNK        -0.4145 
     35 C          28.4728   24.3130   -1.0386 C.2       1 UNK         0.5006 
     36 O          27.8055   23.7543   -0.1661 O.2       1 UNK        -0.5103 
     37 C          26.8206   27.1469    3.0498 C.2       5 UNK         0.5055 
     38 O          26.8388   27.5950    4.1980 O.2       5 UNK        -0.5220 
     39 N          26.5300   27.8859    1.9714 N.am      6 UNK        -0.4450 
     40 CA         26.2431   29.3221    1.9877 C.3       6 UNK         0.0367 
     41 CB         25.2710   29.6405    0.8394 C.3       6 UNK        -0.1929 
     42 C          27.5115   30.1880    1.8686 C.2       6 UNK         0.5070 
     43 O          27.4245   31.4029    2.0526 O.2       6 UNK        -0.5237 
     44 N          28.6540   29.5720    1.5341 N.am      7 UNK        -0.4739 
     45 CA         29.9524   30.2307    1.3788 C.3       7 UNK         0.0276 
     46 CB         30.9477   29.2378    0.7532 C.3       7 UNK        -0.1927 
     47 C          30.5131   30.7581    2.7098 C.2       7 UNK         0.5013 
     48 O          30.3047   30.1368    3.7525 O.2       7 UNK        -0.5193 
     49 N          31.2659   31.8620    2.6310 N.am      8 UNK        -0.4253 
     50 CA         32.0551   32.4086    3.7405 C.3       8 UNK         0.0242 
     51 CB         31.9910   33.9445    3.6890 C.3       8 UNK        -0.2000 
     52 C          33.5204   31.9334    3.7057 C.2       8 UNK         0.4948 
     53 O          34.2422   32.1554    4.6794 O.2       8 UNK        -0.5275 
     54 N          33.9436   31.3152    2.5910 N.am      9 UNK        -0.4246 
     55 CA         35.2947   30.8036    2.3486 C.3       9 UNK         0.0261 
     56 CB         35.3570   30.1873    0.9412 C.3       9 UNK        -0.1959 
     57 C          35.7131   29.7707    3.4049 C.2       9 UNK         0.5033 
     58 O          34.9474   28.8446    3.6758 O.2       9 UNK        -0.5390 
     59 N          36.8970   29.9715    3.9990 N.am      10 UNK        -0.4215 
     60 CA         37.5041   29.2216    5.1105 C.3       10 UNK         0.0240 
     61 CB         37.7170   27.7371    4.7514 C.3       10 UNK        -0.1982 
     62 C          36.7705   29.3669    6.4590 C.2       10 UNK         0.4970 
     63 O          37.4387   29.4887    7.4866 O.2       10 UNK        -0.4916 
     64 N          35.4334   29.3535    6.4419 N.am      11 UNK        -0.4279 
     65 CA         34.5635   29.5083    7.6160 C.3       11 UNK         0.1003 
     66 C          34.6320   30.9144    8.2738 C.2       11 UNK         0.5709 
     67 N          34.8053   31.9880    7.5124 N.am      11 UNK        -0.7358 
     68 O          34.5322   31.0296    9.4931 O.2       11 UNK        -0.4999 
     69 C69        33.0940   29.1254    7.3060 C.3       12 UNK        -0.0954 
     70 S70        32.9317   27.4368    6.6342 S.3       12 UNK        -0.2268 
     71 C71        31.9489   27.7642    5.1400 C.3       12 UNK         0.0203 
     72 H72        29.2856   28.8137   -2.6351 H         1 UNK         0.0888 
     73 H73        28.1887   29.5332   -1.4545 H         1 UNK         0.0888 
     74 H74        27.5392   28.6591   -2.8436 H         1 UNK         0.0888 
     75 H75        30.1988   26.8775   -1.9262 H         1 UNK         0.3017 
     76 H76        29.4468   25.5398    0.4180 H         1 UNK         0.0873 
     77 H77        31.0626   23.7822   -0.2686 H         1 UNK         0.0745 
     78 H78        31.1394   24.4392   -1.8805 H         1 UNK         0.0745 
     79 H79        33.1822   23.9234    0.8342 H         1 UNK         0.0705 
     80 H80        34.0728   25.3709    1.2124 H         1 UNK         0.0705 
     81 H81        33.1325   27.0965    2.7717 H         1 UNK         0.1334 
     82 H82        30.3541   25.6408    5.6869 H         1 UNK         0.1417 
     83 H83        31.2427   23.2814    2.2156 H         1 UNK         0.1562 
     84 H84        29.5983   23.3615    5.5882 H         1 UNK         0.0748 
     85 H85        30.2514   22.2816    4.3867 H         1 UNK         0.0748 
     86 H86        28.1438   25.3944    4.7146 H         1 UNK         0.0940 
     87 H87        26.5518   24.7069    4.6710 H         1 UNK         0.0940 
     88 H88        28.0557   25.6736    2.1895 H         1 UNK         0.0703 
     89 H89        26.4685   24.6095    1.0824 H         1 UNK         0.3081 
     90 H90        24.3134   23.0090    1.3444 H         1 UNK         0.0719 
     91 H91        22.0607   25.0726    1.5914 H         1 UNK         0.0809 
     92 H92        21.8932   23.4589    0.9007 H         1 UNK         0.0809 
     93 H93        22.2852   23.6520    2.6006 H         1 UNK         0.0809 
     94 H94        24.5188   23.7068   -0.7475 H         1 UNK         0.2990 
     95 H95        23.5742   25.2910   -2.7321 H         1 UNK         0.0690 
     96 H96        24.6925   27.3152   -3.6975 H         1 UNK         0.0788 
     97 H97        25.1799   27.8158   -2.0778 H         1 UNK         0.0788 
     98 H98        23.4780   27.7432   -2.5048 H         1 UNK         0.0788 
     99 H99        26.4702   25.6987   -2.3944 H         1 UNK         0.2993 
    100 H100       27.3075   22.3169   -2.4872 H         1 UNK         0.0949 
    101 H101       26.7934   22.4903   -4.9281 H         1 UNK         0.0767 
    102 H102       27.4911   24.1034   -4.9777 H         1 UNK         0.0767 
    103 H103       28.5096   22.7048   -4.6302 H         1 UNK         0.0767 
    104 H104       28.8566   24.6727   -2.9951 H         1 UNK         0.3013 
    105 H105       26.5847   27.4545    1.0489 H         1 UNK         0.3121 
    106 H106       25.7553   29.5832    2.9291 H         1 UNK         0.0774 
    107 H107       25.7011   29.3964   -0.1325 H         1 UNK         0.0815 
    108 H108       25.0108   30.6996    0.8260 H         1 UNK         0.0815 
    109 H109       24.3412   29.0811    0.9428 H         1 UNK         0.0815 
    110 H110       28.6348   28.5688    1.4335 H         1 UNK         0.2987 
    111 H111       29.8206   31.0740    0.6971 H         1 UNK         0.0949 
    112 H112       31.0335   28.3252    1.3449 H         1 UNK         0.0806 
    113 H113       30.6518   28.9578   -0.2558 H         1 UNK         0.0806 
    114 H114       31.9468   29.6675    0.6770 H         1 UNK         0.0806 
    115 H115       31.3535   32.3334    1.7413 H         1 UNK         0.3010 
    116 H116       31.6336   32.0842    4.6947 H         1 UNK         0.0829 
    117 H117       30.9630   34.3004    3.7599 H         1 UNK         0.0813 
    118 H118       32.5425   34.3863    4.5203 H         1 UNK         0.0813 
    119 H119       32.4208   34.3384    2.7672 H         1 UNK         0.0813 
    120 H120       33.2706   31.1525    1.8598 H         1 UNK         0.3038 
    121 H121       35.9786   31.6540    2.3871 H         1 UNK         0.0769 
    122 H122       34.6722   29.3437    0.8399 H         1 UNK         0.0811 
    123 H123       36.3599   29.8188    0.7211 H         1 UNK         0.0811 
    124 H124       35.1066   30.9191    0.1729 H         1 UNK         0.0811 
    125 H125       37.4222   30.7864    3.7117 H         1 UNK         0.3204 
    126 H126       38.4920   29.6639    5.2503 H         1 UNK         0.0748 
    127 H127       38.2830   27.6298    3.8261 H         1 UNK         0.0771 
    128 H128       38.2767   27.2255    5.5356 H         1 UNK         0.0771 
    129 H129       36.7730   27.2045    4.6313 H         1 UNK         0.0771 
    130 H130       34.9743   29.2054    5.5478 H         1 UNK         0.2980 
    131 H131       34.9275   28.8026    8.3654 H         1 UNK         0.0545 
    132 H132       34.8557   32.8949    7.9472 H         1 UNK         0.3459 
    133 H133       34.7993   31.9167    6.4985 H         1 UNK         0.3459 
    134 H134       32.4872   29.1782    8.2119 H         1 UNK         0.0616 
    135 H135       32.6594   29.8421    6.6061 H         1 UNK         0.0616 
    136 H136       30.9757   28.1596    5.4341 H         1 UNK         0.0634 
    137 H137       32.4348   28.5402    4.5468 H         1 UNK         0.0634 
@<TRIPOS>BOND
     1    1    2 1    
     2    1   72 1    
     3    1   73 1    
     4    1   74 1    
     5    2    3 2    
     6    2    4 am   BACKBONE|DICT|INTERRES
     7    4    5 1    
     8    4   75 1    
     9    5    6 1    
    10    5   35 1    
    11    5   76 1    
    12    6    7 1    
    13    6   77 1    
    14    6   78 1    
    15    7    8 1    
    16    8    9 1    
    17    8   79 1    
    18    8   80 1    
    19    9   10 ar   
    20    9   14 ar   
    21   10   11 ar   
    22   10   81 1    
    23   11   12 ar   
    24   11   71 1    
    25   12   13 ar   
    26   12   82 1    
    27   13   14 ar   
    28   13   15 1    
    29   14   83 1    
    30   15   16 1    
    31   15   84 1    
    32   15   85 1    
    33   16   17 1    
    34   17   18 1    
    35   17   86 1    
    36   17   87 1    
    37   18   19 1    
    38   18   37 1    
    39   18   88 1    
    40   19   20 am   BACKBONE|DICT|INTERRES
    41   19   89 1    
    42   20   21 2    
    43   20   22 1    
    44   22   23 1    
    45   22   24 1    
    46   22   90 1    
    47   23   91 1    
    48   23   92 1    
    49   23   93 1    
    50   24   25 am   BACKBONE|DICT|INTERRES
    51   24   94 1    
    52   25   26 2    
    53   25   27 1    
    54   27   28 1    
    55   27   29 1    
    56   27   95 1    
    57   28   96 1    
    58   28   97 1    
    59   28   98 1    
    60   29   30 am   BACKBONE|DICT|INTERRES
    61   29   99 1    
    62   30   31 2    
    63   30   32 1    
    64   32   33 1    
    65   32   34 1    
    66   32  100 1    
    67   33  101 1    
    68   33  102 1    
    69   33  103 1    
    70   34   35 am   BACKBONE|DICT|INTERRES
    71   34  104 1    
    72   35   36 2    
    73   37   38 2    
    74   37   39 am   BACKBONE|DICT|INTERRES
    75   39   40 1    
    76   39  105 1    
    77   40   41 1    
    78   40   42 1    
    79   40  106 1    
    80   41  107 1    
    81   41  108 1    
    82   41  109 1    
    83   42   43 2    
    84   42   44 am   BACKBONE|DICT|INTERRES
    85   44   45 1    
    86   44  110 1    
    87   45   46 1    
    88   45   47 1    
    89   45  111 1    
    90   46  112 1    
    91   46  113 1    
    92   46  114 1    
    93   47   48 2    
    94   47   49 am   BACKBONE|DICT|INTERRES
    95   49   50 1    
    96   49  115 1    
    97   50   51 1    
    98   50   52 1    
    99   50  116 1    
   100   51  117 1    
   101   51  118 1    
   102   51  119 1    
   103   52   53 2    
   104   52   54 am   BACKBONE|DICT|INTERRES
   105   54   55 1    
   106   54  120 1    
   107   55   56 1    
   108   55   57 1    
   109   55  121 1    
   110   56  122 1    
   111   56  123 1    
   112   56  124 1    
   113   57   58 2    
   114   57   59 am   BACKBONE|DICT|INTERRES
   115   59   60 1    
   116   59  125 1    
   117   60   61 1    
   118   60   62 1    
   119   60  126 1    
   120   61  127 1    
   121   61  128 1    
   122   61  129 1    
   123   62   63 2    
   124   62   64 am   BACKBONE|DICT|INTERRES
   125   64   65 1    
   126   64  130 1    
   127   65   66 1    
   128   65   69 1    
   129   65  131 1    
   130   66   67 am   BACKBONE|DICT|INTERRES
   131   66   68 2    
   132   67  132 1    
   133   67  133 1    
   134   69   70 1    
   135   69  134 1    
   136   69  135 1    
   137   70   71 1    
   138   71  136 1    
   139   71  137 1    
@<TRIPOS>SUBSTRUCTURE
     1 UNK         1 GROUP             0       ****    0 ROOT    
