@<TRIPOS>MOLECULE
3R136
137   139    1
SMALL
USER_CHARGES


@<TRIPOS>ATOM
      1 CA         25.6221   20.7889    4.5646 C.3       0 UNK        -0.1979 
      2 C          26.2904   21.7380    3.5804 C.2       0 UNK         0.4864 
      3 O          25.8415   22.8758    3.4354 O.2       0 UNK        -0.5359 
      4 N          27.3547   21.2723    2.9109 N.am      1 UNK        -0.4318 
      5 CA         28.1469   21.9959    1.9065 C.3       1 UNK         0.0824 
      6 C6         28.9450   23.1996    2.4833 C.3       12 UNK        -0.0944 
      7 S7         30.0687   22.6956    3.8290 S.3       12 UNK        -0.2672 
      8 C8         31.6241   22.4042    2.9272 C.3       12 UNK         0.0333 
      9 C9         32.2581   23.6967    2.4319 C.ar      12 UNK        -0.0807 
     10 C10        32.7745   24.6164    3.3488 C.ar      12 UNK        -0.0894 
     11 C11        33.3714   25.8007    2.9088 C.ar      12 UNK        -0.0804 
     12 C12        33.4669   26.0521    1.5365 C.ar      12 UNK        -0.0824 
     13 C13        32.9571   25.1391    0.6068 C.ar      12 UNK        -0.0762 
     14 C14        32.3483   23.9650    1.0619 C.ar      12 UNK        -0.0782 
     15 C15        33.1139   25.3926   -0.8877 C.3       12 UNK         0.0230 
     16 S16        32.3485   26.9517   -1.4368 S.3       12 UNK        -0.2608 
     17 C17        30.5764   26.5284   -1.5235 C.3       12 UNK        -0.0989 
     18 CA         29.6862   27.6531   -0.9137 C.3       5 UNK         0.0716 
     19 N          28.5164   27.9356   -1.7514 N.am      5 UNK        -0.4135 
     20 C          27.9490   29.1406   -1.9025 C.2       4 UNK         0.5031 
     21 O          28.3551   30.1636   -1.3495 O.2       4 UNK        -0.5229 
     22 CA         26.6966   29.2007   -2.7897 C.3       4 UNK         0.0329 
     23 CB         27.0527   28.9869   -4.2708 C.3       4 UNK        -0.2001 
     24 N          25.6995   28.2151   -2.3694 N.am      4 UNK        -0.4303 
     25 C          24.9118   28.3492   -1.2918 C.2       3 UNK         0.5044 
     26 O          24.8831   29.3522   -0.5784 O.2       3 UNK        -0.5152 
     27 CA         24.0110   27.1501   -0.9472 C.3       3 UNK         0.0319 
     28 CB         22.7160   27.1853   -1.7751 C.3       3 UNK        -0.2001 
     29 N          24.6870   25.8630   -1.1415 N.am      3 UNK        -0.4354 
     30 C          25.7059   25.4326   -0.3853 C.2       2 UNK         0.4964 
     31 O          26.1527   26.0537    0.5805 O.2       2 UNK        -0.5047 
     32 CA         26.3438   24.1010   -0.7958 C.3       2 UNK         0.0288 
     33 CB         27.2164   24.2620   -2.0540 C.3       2 UNK        -0.2113 
     34 N          27.1722   23.6110    0.3023 N.am      2 UNK        -0.4145 
     35 C          27.2795   22.3297    0.6721 C.2       1 UNK         0.5006 
     36 O          26.7279   21.4031    0.0721 O.2       1 UNK        -0.5103 
     37 C          29.2330   27.3969    0.5399 C.2       5 UNK         0.5055 
     38 O          29.3963   26.2934    1.0622 O.2       5 UNK        -0.5220 
     39 N          28.6084   28.4165    1.1454 N.am      6 UNK        -0.4450 
     40 CA         28.1017   28.3883    2.5154 C.3       6 UNK         0.0367 
     41 CB         27.1516   29.5756    2.7342 C.3       6 UNK        -0.1929 
     42 C          29.2692   28.4277    3.5082 C.2       6 UNK         0.5070 
     43 O          30.0951   29.3407    3.4288 O.2       6 UNK        -0.5237 
     44 N          29.3110   27.4507    4.4230 N.am      7 UNK        -0.4739 
     45 CA         30.4421   27.1678    5.3141 C.3       7 UNK         0.0276 
     46 CB         30.1019   25.9647    6.2068 C.3       7 UNK        -0.1927 
     47 C          30.9230   28.3515    6.1704 C.2       7 UNK         0.5013 
     48 O          32.1263   28.4951    6.3850 O.2       7 UNK        -0.5193 
     49 N          29.9764   29.1807    6.6259 N.am      8 UNK        -0.4253 
     50 CA         30.2368   30.3679    7.4410 C.3       8 UNK         0.0242 
     51 CB         28.9510   30.7351    8.2015 C.3       8 UNK        -0.2000 
     52 C          30.7466   31.5799    6.6383 C.2       8 UNK         0.4948 
     53 O          31.2564   32.5165    7.2551 O.2       8 UNK        -0.5275 
     54 N          30.5744   31.5717    5.3087 N.am      9 UNK        -0.4246 
     55 CA         30.8937   32.6976    4.4273 C.3       9 UNK         0.0261 
     56 CB         29.6510   33.0526    3.5934 C.3       9 UNK        -0.1959 
     57 C          32.0795   32.3940    3.5030 C.2       9 UNK         0.5033 
     58 O          32.9235   33.2683    3.3024 O.2       9 UNK        -0.5390 
     59 N          32.1161   31.1821    2.9341 N.am      10 UNK        -0.4215 
     60 CA         33.0899   30.7766    1.9182 C.3       10 UNK         0.0240 
     61 CB         32.5083   29.5988    1.1227 C.3       10 UNK        -0.1982 
     62 C          34.4836   30.4328    2.4725 C.2       10 UNK         0.4970 
     63 O          35.4351   30.3963    1.6910 O.2       10 UNK        -0.4916 
     64 N          34.5847   30.1859    3.7829 N.am      11 UNK        -0.4279 
     65 CA         35.8285   29.8687    4.4970 C.3       11 UNK         0.1003 
     66 C          36.0808   30.9147    5.6119 C.2       11 UNK         0.5709 
     67 N          37.3381   31.1791    5.9405 N.am      11 UNK        -0.7358 
     68 O          35.1533   31.4657    6.2030 O.2       11 UNK        -0.4999 
     69 C69        35.8048   28.4339    5.0885 C.3       12 UNK        -0.0954 
     70 S70        35.6497   27.1334    3.8164 S.3       12 UNK        -0.2268 
     71 C71        33.8623   26.8261    3.9196 C.3       12 UNK         0.0203 
     72 H72        26.1198   19.8199    4.6002 H         1 UNK         0.0888 
     73 H73        25.6400   21.2155    5.5671 H         1 UNK         0.0888 
     74 H74        24.5825   20.6259    4.2815 H         1 UNK         0.0888 
     75 H75        27.6476   20.3188    3.0704 H         1 UNK         0.3017 
     76 H76        28.8817   21.2770    1.5409 H         1 UNK         0.0873 
     77 H77        29.5320   23.6841    1.7020 H         1 UNK         0.0745 
     78 H78        28.2733   23.9647    2.8762 H         1 UNK         0.0745 
     79 H79        32.3249   21.8997    3.5938 H         1 UNK         0.0705 
     80 H80        31.4391   21.7149    2.1019 H         1 UNK         0.0705 
     81 H81        32.6937   24.4122    4.4079 H         1 UNK         0.1334 
     82 H82        33.9399   26.9611    1.1910 H         1 UNK         0.1417 
     83 H83        31.9578   23.2516    0.3492 H         1 UNK         0.1562 
     84 H84        32.7080   24.5675   -1.4751 H         1 UNK         0.0748 
     85 H85        34.1793   25.4328   -1.1184 H         1 UNK         0.0748 
     86 H86        30.3953   25.5503   -1.0745 H         1 UNK         0.0940 
     87 H87        30.3525   26.3977   -2.5834 H         1 UNK         0.0940 
     88 H88        30.2835   28.5666   -0.8845 H         1 UNK         0.0703 
     89 H89        28.0893   27.1442   -2.2056 H         1 UNK         0.3081 
     90 H90        26.2640   30.1990   -2.6904 H         1 UNK         0.0719 
     91 H91        27.4610   27.9931   -4.4583 H         1 UNK         0.0809 
     92 H92        26.1775   29.1136   -4.9085 H         1 UNK         0.0809 
     93 H93        27.7977   29.7126   -4.6001 H         1 UNK         0.0809 
     94 H94        25.6324   27.3650   -2.9090 H         1 UNK         0.2990 
     95 H95        23.7403   27.2336    0.1079 H         1 UNK         0.0690 
     96 H96        22.0348   26.3871   -1.4796 H         1 UNK         0.0788 
     97 H97        22.9121   27.0820   -2.8430 H         1 UNK         0.0788 
     98 H98        22.1878   28.1290   -1.6308 H         1 UNK         0.0788 
     99 H99        24.3666   25.2899   -1.9094 H         1 UNK         0.2993 
    100 H100       25.5346   23.3956   -0.9986 H         1 UNK         0.0949 
    101 H101       27.6325   23.3040   -2.3666 H         1 UNK         0.0767 
    102 H102       26.6401   24.6503   -2.8944 H         1 UNK         0.0767 
    103 H103       28.0498   24.9416   -1.8789 H         1 UNK         0.0767 
    104 H104       27.5833   24.3398    0.8751 H         1 UNK         0.3013 
    105 H105       28.5047   29.2837    0.6324 H         1 UNK         0.3121 
    106 H106       27.5364   27.4637    2.6529 H         1 UNK         0.0774 
    107 H107       26.7560   29.5780    3.7506 H         1 UNK         0.0815 
    108 H108       27.6522   30.5309    2.5753 H         1 UNK         0.0815 
    109 H109       26.3000   29.5277    2.0546 H         1 UNK         0.0815 
    110 H110       28.5771   26.7569    4.4087 H         1 UNK         0.2987 
    111 H111       31.2678   26.8800    4.6667 H         1 UNK         0.0949 
    112 H112       29.2493   26.1698    6.8552 H         1 UNK         0.0806 
    113 H113       29.8666   25.0829    5.6118 H         1 UNK         0.0806 
    114 H114       30.9452   25.7030    6.8478 H         1 UNK         0.0806 
    115 H115       29.0146   28.9842    6.3887 H         1 UNK         0.3010 
    116 H116       31.0067   30.1209    8.1756 H         1 UNK         0.0829 
    117 H117       28.6142   29.9131    8.8335 H         1 UNK         0.0813 
    118 H118       29.1141   31.5949    8.8531 H         1 UNK         0.0813 
    119 H119       28.1383   30.9926    7.5210 H         1 UNK         0.0813 
    120 H120       30.2008   30.7381    4.8669 H         1 UNK         0.3038 
    121 H121       31.1586   33.5796    5.0144 H         1 UNK         0.0769 
    122 H122       29.3401   32.2241    2.9564 H         1 UNK         0.0811 
    123 H123       29.8482   33.9066    2.9438 H         1 UNK         0.0811 
    124 H124       28.8086   33.3192    4.2318 H         1 UNK         0.0811 
    125 H125       31.3717   30.5135    3.1362 H         1 UNK         0.3204 
    126 H126       33.2242   31.6094    1.2243 H         1 UNK         0.0748 
    127 H127       33.2045   29.2629    0.3534 H         1 UNK         0.0771 
    128 H128       32.2842   28.7456    1.7631 H         1 UNK         0.0771 
    129 H129       31.5855   29.8872    0.6203 H         1 UNK         0.0771 
    130 H130       33.7698   30.3031    4.3677 H         1 UNK         0.2980 
    131 H131       36.6724   29.9312    3.8073 H         1 UNK         0.0545 
    132 H132       38.1073   30.7254    5.4724 H         1 UNK         0.3459 
    133 H133       37.5216   31.8480    6.6720 H         1 UNK         0.3459 
    134 H134       36.7295   28.2373    5.6341 H         1 UNK         0.0616 
    135 H135       34.9990   28.3311    5.8183 H         1 UNK         0.0616 
    136 H136       33.6294   26.5044    4.9359 H         1 UNK         0.0634 
    137 H137       33.3232   27.7594    3.7596 H         1 UNK         0.0634 
@<TRIPOS>BOND
     1    1    2 1    
     2    1   72 1    
     3    1   73 1    
     4    1   74 1    
     5    2    3 2    
     6    2    4 am   BACKBONE|DICT|INTERRES
     7    4    5 1    
     8    4   75 1    
     9    5    6 1    
    10    5   35 1    
    11    5   76 1    
    12    6    7 1    
    13    6   77 1    
    14    6   78 1    
    15    7    8 1    
    16    8    9 1    
    17    8   79 1    
    18    8   80 1    
    19    9   10 ar   
    20    9   14 ar   
    21   10   11 ar   
    22   10   81 1    
    23   11   12 ar   
    24   11   71 1    
    25   12   13 ar   
    26   12   82 1    
    27   13   14 ar   
    28   13   15 1    
    29   14   83 1    
    30   15   16 1    
    31   15   84 1    
    32   15   85 1    
    33   16   17 1    
    34   17   18 1    
    35   17   86 1    
    36   17   87 1    
    37   18   19 1    
    38   18   37 1    
    39   18   88 1    
    40   19   20 am   BACKBONE|DICT|INTERRES
    41   19   89 1    
    42   20   21 2    
    43   20   22 1    
    44   22   23 1    
    45   22   24 1    
    46   22   90 1    
    47   23   91 1    
    48   23   92 1    
    49   23   93 1    
    50   24   25 am   BACKBONE|DICT|INTERRES
    51   24   94 1    
    52   25   26 2    
    53   25   27 1    
    54   27   28 1    
    55   27   29 1    
    56   27   95 1    
    57   28   96 1    
    58   28   97 1    
    59   28   98 1    
    60   29   30 am   BACKBONE|DICT|INTERRES
    61   29   99 1    
    62   30   31 2    
    63   30   32 1    
    64   32   33 1    
    65   32   34 1    
    66   32  100 1    
    67   33  101 1    
    68   33  102 1    
    69   33  103 1    
    70   34   35 am   BACKBONE|DICT|INTERRES
    71   34  104 1    
    72   35   36 2    
    73   37   38 2    
    74   37   39 am   BACKBONE|DICT|INTERRES
    75   39   40 1    
    76   39  105 1    
    77   40   41 1    
    78   40   42 1    
    79   40  106 1    
    80   41  107 1    
    81   41  108 1    
    82   41  109 1    
    83   42   43 2    
    84   42   44 am   BACKBONE|DICT|INTERRES
    85   44   45 1    
    86   44  110 1    
    87   45   46 1    
    88   45   47 1    
    89   45  111 1    
    90   46  112 1    
    91   46  113 1    
    92   46  114 1    
    93   47   48 2    
    94   47   49 am   BACKBONE|DICT|INTERRES
    95   49   50 1    
    96   49  115 1    
    97   50   51 1    
    98   50   52 1    
    99   50  116 1    
   100   51  117 1    
   101   51  118 1    
   102   51  119 1    
   103   52   53 2    
   104   52   54 am   BACKBONE|DICT|INTERRES
   105   54   55 1    
   106   54  120 1    
   107   55   56 1    
   108   55   57 1    
   109   55  121 1    
   110   56  122 1    
   111   56  123 1    
   112   56  124 1    
   113   57   58 2    
   114   57   59 am   BACKBONE|DICT|INTERRES
   115   59   60 1    
   116   59  125 1    
   117   60   61 1    
   118   60   62 1    
   119   60  126 1    
   120   61  127 1    
   121   61  128 1    
   122   61  129 1    
   123   62   63 2    
   124   62   64 am   BACKBONE|DICT|INTERRES
   125   64   65 1    
   126   64  130 1    
   127   65   66 1    
   128   65   69 1    
   129   65  131 1    
   130   66   67 am   BACKBONE|DICT|INTERRES
   131   66   68 2    
   132   67  132 1    
   133   67  133 1    
   134   69   70 1    
   135   69  134 1    
   136   69  135 1    
   137   70   71 1    
   138   71  136 1    
   139   71  137 1    
@<TRIPOS>SUBSTRUCTURE
     1 UNK         1 GROUP             0       ****    0 ROOT    
