@<TRIPOS>MOLECULE
3R136
137   139    1
SMALL
USER_CHARGES


@<TRIPOS>ATOM
      1 CA         30.2185   22.5394   -3.9228 C.3       0 UNK        -0.1979 
      2 C          29.9941   22.8602   -2.4525 C.2       0 UNK         0.4864 
      3 O          29.0716   23.6073   -2.1258 O.2       0 UNK        -0.5359 
      4 N          30.8347   22.3060   -1.5691 N.am      1 UNK        -0.4318 
      5 CA         30.7656   22.4722   -0.1145 C.3       1 UNK         0.0824 
      6 C6         32.0450   21.9493    0.5849 C.3       12 UNK        -0.0944 
      7 S7         33.5196   22.9074    0.0982 S.3       12 UNK        -0.2672 
      8 C8         33.7872   23.9522    1.5667 C.3       12 UNK         0.0333 
      9 C9         32.5921   24.8472    1.8650 C.ar      12 UNK        -0.0807 
     10 C10        31.7829   24.5922    2.9795 C.ar      12 UNK        -0.0894 
     11 C11        30.6921   25.4175    3.2671 C.ar      12 UNK        -0.0804 
     12 C12        30.4280   26.5044    2.4360 C.ar      12 UNK        -0.0824 
     13 C13        31.2149   26.7674    1.3148 C.ar      12 UNK        -0.0762 
     14 C14        32.3012   25.9348    1.0321 C.ar      12 UNK        -0.0782 
     15 C15        30.8951   27.9762    0.4463 C.3       12 UNK         0.0230 
     16 S16        29.7903   27.6091   -0.9660 S.3       12 UNK        -0.2608 
     17 C17        28.3769   26.6892   -0.2533 C.3       12 UNK        -0.0989 
     18 CA         27.1415   27.5476    0.1268 C.3       5 UNK         0.0716 
     19 N          25.9792   26.6881    0.3403 N.am      5 UNK        -0.4135 
     20 C          24.7063   27.0395    0.1169 C.2       4 UNK         0.5031 
     21 O          24.3744   28.1106   -0.3932 O.2       4 UNK        -0.5229 
     22 CA         23.6083   26.0307    0.5118 C.3       4 UNK         0.0329 
     23 CB         23.1112   25.2690   -0.7279 C.3       4 UNK        -0.2001 
     24 N          24.0440   25.0628    1.5213 N.am      4 UNK        -0.4303 
     25 C          24.2334   25.3405    2.8194 C.2       3 UNK         0.5044 
     26 O          23.9373   26.4186    3.3350 O.2       3 UNK        -0.5152 
     27 CA         24.8635   24.2356    3.6947 C.3       3 UNK         0.0319 
     28 CB         23.7913   23.5703    4.5732 C.3       3 UNK        -0.2001 
     29 N          25.5897   23.1928    2.9538 N.am      3 UNK        -0.4354 
     30 C          26.6638   23.4054    2.1818 C.2       2 UNK         0.4964 
     31 O          27.1434   24.5214    1.9721 O.2       2 UNK        -0.5047 
     32 CA         27.2658   22.1841    1.4790 C.3       2 UNK         0.0288 
     33 CB         26.3367   21.6982    0.3469 C.3       2 UNK        -0.2113 
     34 N          28.5600   22.5833    0.9359 N.am      2 UNK        -0.4145 
     35 C          29.5067   21.7804    0.4429 C.2       1 UNK         0.5006 
     36 O          29.4198   20.5503    0.4052 O.2       1 UNK        -0.5103 
     37 C          27.3758   28.3638    1.4120 C.2       5 UNK         0.5055 
     38 O          27.1793   27.8463    2.5141 O.2       5 UNK        -0.5220 
     39 N          27.8332   29.6076    1.2552 N.am      6 UNK        -0.4450 
     40 CA         28.3117   30.4637    2.3342 C.3       6 UNK         0.0367 
     41 CB         27.1368   31.1288    3.0733 C.3       6 UNK        -0.1929 
     42 C          29.2392   31.5036    1.7060 C.2       6 UNK         0.5070 
     43 O          28.8770   32.0962    0.6868 O.2       6 UNK        -0.5237 
     44 N          30.4140   31.6968    2.3052 N.am      7 UNK        -0.4739 
     45 CA         31.4462   32.6277    1.8623 C.3       7 UNK         0.0276 
     46 CB         32.2522   31.9874    0.7133 C.3       7 UNK        -0.1927 
     47 C          32.3566   32.9606    3.0491 C.2       7 UNK         0.5013 
     48 O          32.2919   32.2912    4.0830 O.2       7 UNK        -0.5193 
     49 N          33.2454   33.9454    2.8643 N.am      8 UNK        -0.4253 
     50 CA         34.3045   34.2823    3.8249 C.3       8 UNK         0.0242 
     51 CB         35.0162   35.5670    3.3702 C.3       8 UNK        -0.2000 
     52 C          35.3236   33.1431    4.0329 C.2       8 UNK         0.4948 
     53 O          35.9383   33.0689    5.0974 O.2       8 UNK        -0.5275 
     54 N          35.4726   32.2765    3.0201 N.am      9 UNK        -0.4246 
     55 CA         36.3078   31.0777    3.0533 C.3       9 UNK         0.0261 
     56 CB         36.5028   30.5556    1.6200 C.3       9 UNK        -0.1959 
     57 C          35.7470   29.9638    3.9555 C.2       9 UNK         0.5033 
     58 O          36.5414   29.2624    4.5843 O.2       9 UNK        -0.5390 
     59 N          34.4156   29.8059    4.0034 N.am      10 UNK        -0.4215 
     60 CA         33.7306   28.7624    4.7644 C.3       10 UNK         0.0240 
     61 CB         33.9671   27.3760    4.1328 C.3       10 UNK        -0.1982 
     62 C          32.2270   29.0499    4.8337 C.2       10 UNK         0.4970 
     63 O          31.6199   29.3932    3.8174 O.2       10 UNK        -0.4916 
     64 N          31.6629   28.8534    6.0301 N.am      11 UNK        -0.4279 
     65 CA         30.2252   28.8439    6.3549 C.3       11 UNK         0.1003 
     66 C          29.4621   30.1940    6.1911 C.2       11 UNK         0.5709 
     67 N          30.0910   31.2910    5.7900 N.am      11 UNK        -0.7358 
     68 O          28.2697   30.2599    6.4790 O.2       11 UNK        -0.4999 
     69 C69        29.4596   27.6644    5.6886 C.3       12 UNK        -0.0954 
     70 S70        30.2500   26.0346    5.9513 S.3       12 UNK        -0.2268 
     71 C71        29.7749   25.1229    4.4469 C.3       12 UNK         0.0203 
     72 H72        30.3990   23.4567   -4.4827 H         1 UNK         0.0888 
     73 H73        31.0722   21.8782   -4.0708 H         1 UNK         0.0888 
     74 H74        29.3365   22.0535   -4.3390 H         1 UNK         0.0888 
     75 H75        31.5708   21.6984   -1.8982 H         1 UNK         0.3017 
     76 H76        30.6840   23.5426    0.0893 H         1 UNK         0.0873 
     77 H77        32.2196   20.9011    0.3347 H         1 UNK         0.0745 
     78 H78        31.9376   21.9823    1.6705 H         1 UNK         0.0745 
     79 H79        34.6688   24.5735    1.4027 H         1 UNK         0.0705 
     80 H80        34.0189   23.3151    2.4216 H         1 UNK         0.0705 
     81 H81        31.9988   23.7502    3.6227 H         1 UNK         0.1334 
     82 H82        29.5887   27.1442    2.6477 H         1 UNK         0.1417 
     83 H83        32.9216   26.1327    0.1686 H         1 UNK         0.1562 
     84 H84        31.8227   28.3987    0.0577 H         1 UNK         0.0748 
     85 H85        30.4564   28.7625    1.0595 H         1 UNK         0.0748 
     86 H86        28.6954   26.0596    0.5735 H         1 UNK         0.0940 
     87 H87        28.0788   25.9800   -1.0276 H         1 UNK         0.0940 
     88 H88        26.9295   28.2329   -0.6969 H         1 UNK         0.0703 
     89 H89        26.1700   25.8415    0.8669 H         1 UNK         0.3081 
     90 H90        22.7714   26.6010    0.9207 H         1 UNK         0.0719 
     91 H91        22.7495   25.9598   -1.4910 H         1 UNK         0.0809 
     92 H92        23.9034   24.6705   -1.1799 H         1 UNK         0.0809 
     93 H93        22.2849   24.6024   -0.4800 H         1 UNK         0.0809 
     94 H94        24.2908   24.1409    1.1932 H         1 UNK         0.2990 
     95 H95        25.5846   24.7282    4.3507 H         1 UNK         0.0690 
     96 H96        24.2341   22.8626    5.2744 H         1 UNK         0.0788 
     97 H97        23.0537   23.0352    3.9737 H         1 UNK         0.0788 
     98 H98        23.2534   24.3132    5.1642 H         1 UNK         0.0788 
     99 H99        25.2467   22.2483    3.0584 H         1 UNK         0.2993 
    100 H100       27.4154   21.3912    2.2147 H         1 UNK         0.0949 
    101 H101       26.1906   22.4703   -0.4101 H         1 UNK         0.0767 
    102 H102       26.7413   20.8181   -0.1531 H         1 UNK         0.0767 
    103 H103       25.3535   21.4205    0.7284 H         1 UNK         0.0767 
    104 H104       28.7045   23.5863    0.9536 H         1 UNK         0.3013 
    105 H105       27.9847   29.9813    0.3260 H         1 UNK         0.3121 
    106 H106       28.8851   29.8591    3.0411 H         1 UNK         0.0774 
    107 H107       27.4993   31.7928    3.8590 H         1 UNK         0.0815 
    108 H108       26.5200   31.7227    2.3980 H         1 UNK         0.0815 
    109 H109       26.4963   30.3869    3.5504 H         1 UNK         0.0815 
    110 H110       30.6646   31.1596    3.1321 H         1 UNK         0.2987 
    111 H111       30.9777   33.5535    1.5207 H         1 UNK         0.0949 
    112 H112       31.6125   31.7529   -0.1378 H         1 UNK         0.0806 
    113 H113       33.0312   32.6570    0.3474 H         1 UNK         0.0806 
    114 H114       32.7335   31.0606    1.0290 H         1 UNK         0.0806 
    115 H115       33.2356   34.4617    1.9959 H         1 UNK         0.3010 
    116 H116       33.8313   34.4746    4.7904 H         1 UNK         0.0829 
    117 H117       35.4956   35.4425    2.3984 H         1 UNK         0.0813 
    118 H118       35.7921   35.8549    4.0812 H         1 UNK         0.0813 
    119 H119       34.3202   36.4030    3.2984 H         1 UNK         0.0813 
    120 H120       34.9459   32.4406    2.1757 H         1 UNK         0.3038 
    121 H121       37.2865   31.3605    3.4476 H         1 UNK         0.0769 
    122 H122       36.9768   31.3043    0.9850 H         1 UNK         0.0811 
    123 H123       35.5560   30.2723    1.1583 H         1 UNK         0.0811 
    124 H124       37.1449   29.6736    1.6115 H         1 UNK         0.0811 
    125 H125       33.8051   30.4523    3.5191 H         1 UNK         0.3204 
    126 H126       34.1344   28.7622    5.7792 H         1 UNK         0.0748 
    127 H127       33.3784   26.6079    4.6365 H         1 UNK         0.0771 
    128 H128       33.6794   27.3685    3.0817 H         1 UNK         0.0771 
    129 H129       35.0115   27.0718    4.1957 H         1 UNK         0.0771 
    130 H130       32.2637   28.5957    6.7989 H         1 UNK         0.2980 
    131 H131       30.1997   28.6605    7.4294 H         1 UNK         0.0545 
    132 H132       29.5740   32.1526    5.7334 H         1 UNK         0.3459 
    133 H133       31.0596   31.2731    5.4983 H         1 UNK         0.3459 
    134 H134       29.3486   27.8599    4.6256 H         1 UNK         0.0616 
    135 H135       28.4446   27.5970    6.0838 H         1 UNK         0.0616 
    136 H136       28.7406   25.3579    4.1885 H         1 UNK         0.0634 
    137 H137       29.7941   24.0548    4.6679 H         1 UNK         0.0634 
@<TRIPOS>BOND
     1    1    2 1    
     2    1   72 1    
     3    1   73 1    
     4    1   74 1    
     5    2    3 2    
     6    2    4 am   BACKBONE|DICT|INTERRES
     7    4    5 1    
     8    4   75 1    
     9    5    6 1    
    10    5   35 1    
    11    5   76 1    
    12    6    7 1    
    13    6   77 1    
    14    6   78 1    
    15    7    8 1    
    16    8    9 1    
    17    8   79 1    
    18    8   80 1    
    19    9   10 ar   
    20    9   14 ar   
    21   10   11 ar   
    22   10   81 1    
    23   11   12 ar   
    24   11   71 1    
    25   12   13 ar   
    26   12   82 1    
    27   13   14 ar   
    28   13   15 1    
    29   14   83 1    
    30   15   16 1    
    31   15   84 1    
    32   15   85 1    
    33   16   17 1    
    34   17   18 1    
    35   17   86 1    
    36   17   87 1    
    37   18   19 1    
    38   18   37 1    
    39   18   88 1    
    40   19   20 am   BACKBONE|DICT|INTERRES
    41   19   89 1    
    42   20   21 2    
    43   20   22 1    
    44   22   23 1    
    45   22   24 1    
    46   22   90 1    
    47   23   91 1    
    48   23   92 1    
    49   23   93 1    
    50   24   25 am   BACKBONE|DICT|INTERRES
    51   24   94 1    
    52   25   26 2    
    53   25   27 1    
    54   27   28 1    
    55   27   29 1    
    56   27   95 1    
    57   28   96 1    
    58   28   97 1    
    59   28   98 1    
    60   29   30 am   BACKBONE|DICT|INTERRES
    61   29   99 1    
    62   30   31 2    
    63   30   32 1    
    64   32   33 1    
    65   32   34 1    
    66   32  100 1    
    67   33  101 1    
    68   33  102 1    
    69   33  103 1    
    70   34   35 am   BACKBONE|DICT|INTERRES
    71   34  104 1    
    72   35   36 2    
    73   37   38 2    
    74   37   39 am   BACKBONE|DICT|INTERRES
    75   39   40 1    
    76   39  105 1    
    77   40   41 1    
    78   40   42 1    
    79   40  106 1    
    80   41  107 1    
    81   41  108 1    
    82   41  109 1    
    83   42   43 2    
    84   42   44 am   BACKBONE|DICT|INTERRES
    85   44   45 1    
    86   44  110 1    
    87   45   46 1    
    88   45   47 1    
    89   45  111 1    
    90   46  112 1    
    91   46  113 1    
    92   46  114 1    
    93   47   48 2    
    94   47   49 am   BACKBONE|DICT|INTERRES
    95   49   50 1    
    96   49  115 1    
    97   50   51 1    
    98   50   52 1    
    99   50  116 1    
   100   51  117 1    
   101   51  118 1    
   102   51  119 1    
   103   52   53 2    
   104   52   54 am   BACKBONE|DICT|INTERRES
   105   54   55 1    
   106   54  120 1    
   107   55   56 1    
   108   55   57 1    
   109   55  121 1    
   110   56  122 1    
   111   56  123 1    
   112   56  124 1    
   113   57   58 2    
   114   57   59 am   BACKBONE|DICT|INTERRES
   115   59   60 1    
   116   59  125 1    
   117   60   61 1    
   118   60   62 1    
   119   60  126 1    
   120   61  127 1    
   121   61  128 1    
   122   61  129 1    
   123   62   63 2    
   124   62   64 am   BACKBONE|DICT|INTERRES
   125   64   65 1    
   126   64  130 1    
   127   65   66 1    
   128   65   69 1    
   129   65  131 1    
   130   66   67 am   BACKBONE|DICT|INTERRES
   131   66   68 2    
   132   67  132 1    
   133   67  133 1    
   134   69   70 1    
   135   69  134 1    
   136   69  135 1    
   137   70   71 1    
   138   71  136 1    
   139   71  137 1    
@<TRIPOS>SUBSTRUCTURE
     1 UNK         1 GROUP             0       ****    0 ROOT    
