@<TRIPOS>MOLECULE
3R136
137   139    1
SMALL
USER_CHARGES


@<TRIPOS>ATOM
      1 CA         25.7747   22.5195    4.4748 C.3       0 UNK        -0.1979 
      2 C          26.9562   23.4604    4.7005 C.2       0 UNK         0.4864 
      3 O          27.0229   24.0916    5.7536 O.2       0 UNK        -0.5359 
      4 N          27.9166   23.5817    3.7716 N.am      1 UNK        -0.4318 
      5 CA         27.9783   22.9591    2.4422 C.3       1 UNK         0.0824 
      6 C6         29.3491   23.2109    1.7650 C.3       12 UNK        -0.0944 
      7 S7         30.7126   22.4763    2.7323 S.3       12 UNK        -0.2672 
      8 C8         31.9164   22.0365    1.4389 C.3       12 UNK         0.0333 
      9 C9         32.6440   23.2663    0.9187 C.ar      12 UNK        -0.0807 
     10 C10        33.6914   23.8241    1.6605 C.ar      12 UNK        -0.0894 
     11 C11        34.3464   24.9740    1.2091 C.ar      12 UNK        -0.0804 
     12 C12        33.9634   25.5490   -0.0040 C.ar      12 UNK        -0.0824 
     13 C13        32.9008   25.0173   -0.7386 C.ar      12 UNK        -0.0762 
     14 C14        32.2552   23.8634   -0.2848 C.ar      12 UNK        -0.0782 
     15 C15        32.3908   25.7595   -1.9646 C.3       12 UNK         0.0230 
     16 S16        30.8785   26.7223   -1.6046 S.3       12 UNK        -0.2608 
     17 C17        31.1358   27.2692    0.1214 C.3       12 UNK        -0.0989 
     18 CA         30.0910   28.2918    0.6149 C.3       5 UNK         0.0716 
     19 N          28.7134   27.8500    0.3749 N.am      5 UNK        -0.4135 
     20 C          27.6144   28.5782    0.6113 C.2       4 UNK         0.5031 
     21 O          27.6508   29.7129    1.0925 O.2       4 UNK        -0.5229 
     22 CA         26.2562   27.9093    0.3357 C.3       4 UNK         0.0329 
     23 CB         25.1964   28.9079   -0.1757 C.3       4 UNK        -0.2001 
     24 N          26.3432   26.7096   -0.5102 N.am      4 UNK        -0.4303 
     25 C          26.6005   26.6375   -1.8275 C.2       3 UNK         0.5044 
     26 O          26.8114   27.6224   -2.5352 O.2       3 UNK        -0.5152 
     27 CA         26.6473   25.2352   -2.4776 C.3       3 UNK         0.0319 
     28 CB         28.0191   24.9561   -3.1145 C.3       3 UNK        -0.2001 
     29 N          26.3341   24.1374   -1.5590 N.am      3 UNK        -0.4354 
     30 C          25.1104   23.8276   -1.1114 C.2       2 UNK         0.4964 
     31 O          24.0819   24.3860   -1.4926 O.2       2 UNK        -0.5047 
     32 CA         25.0163   22.7319   -0.0328 C.3       2 UNK         0.0288 
     33 CB         24.6052   21.3931   -0.6673 C.3       2 UNK        -0.2113 
     34 N          26.2311   22.5278    0.7719 N.am      2 UNK        -0.4145 
     35 C          26.8256   23.4513    1.5432 C.2       1 UNK         0.5006 
     36 O          26.5028   24.6417    1.5624 O.2       1 UNK        -0.5103 
     37 C          30.3558   28.6261    2.0970 C.2       5 UNK         0.5055 
     38 O          31.1530   29.5159    2.3779 O.2       5 UNK        -0.5220 
     39 N          29.6628   27.9351    3.0136 N.am      6 UNK        -0.4450 
     40 CA         29.7142   28.1785    4.4572 C.3       6 UNK         0.0367 
     41 CB         29.1456   26.9515    5.1878 C.3       6 UNK        -0.1929 
     42 C          28.9950   29.4680    4.9023 C.2       6 UNK         0.5070 
     43 O          29.1921   29.8970    6.0393 O.2       6 UNK        -0.5237 
     44 N          28.1705   30.0573    4.0248 N.am      7 UNK        -0.4739 
     45 CA         27.5627   31.3735    4.2222 C.3       7 UNK         0.0276 
     46 CB         26.1035   31.3479    3.7365 C.3       7 UNK        -0.1927 
     47 C          28.3656   32.4541    3.4821 C.2       7 UNK         0.5013 
     48 O          28.5590   33.5405    4.0287 O.2       7 UNK        -0.5193 
     49 N          28.8099   32.1448    2.2546 N.am      8 UNK        -0.4253 
     50 CA         29.5669   33.0541    1.3904 C.3       8 UNK         0.0242 
     51 CB         29.5552   32.5087   -0.0467 C.3       8 UNK        -0.2000 
     52 C          31.0133   33.3067    1.8553 C.2       8 UNK         0.4948 
     53 O          31.5294   34.4021    1.6272 O.2       8 UNK        -0.5275 
     54 N          31.6445   32.3022    2.4720 N.am      9 UNK        -0.4246 
     55 CA         33.0240   32.3185    2.9539 C.3       9 UNK         0.0261 
     56 CB         33.9072   31.5531    1.9474 C.3       9 UNK        -0.1959 
     57 C          33.0925   31.7042    4.3620 C.2       9 UNK         0.5033 
     58 O          32.0631   31.3574    4.9431 O.2       9 UNK        -0.5390 
     59 N          34.3149   31.5807    4.8946 N.am      10 UNK        -0.4215 
     60 CA         34.6113   31.0693    6.2387 C.3       10 UNK         0.0240 
     61 CB         35.9595   31.6591    6.6961 C.3       10 UNK        -0.1982 
     62 C          34.6041   29.5284    6.3604 C.2       10 UNK         0.4970 
     63 O          35.0514   29.0132    7.3868 O.2       10 UNK        -0.4916 
     64 N          34.1359   28.8162    5.3277 N.am      11 UNK        -0.4279 
     65 CA         34.0291   27.3490    5.2804 C.3       11 UNK         0.1003 
     66 C          33.0657   26.7546    6.3480 C.2       11 UNK         0.5709 
     67 N          33.2368   25.4841    6.6923 N.am      11 UNK        -0.7358 
     68 O          32.1551   27.4137    6.8456 O.2       11 UNK        -0.4999 
     69 C69        33.6490   26.8652    3.8574 C.3       12 UNK        -0.0954 
     70 S70        34.9337   27.2804    2.6298 S.3       12 UNK        -0.2268 
     71 C71        35.4393   25.6290    2.0420 C.3       12 UNK         0.0203 
     72 H72        26.0777   21.5863    4.0038 H         1 UNK         0.0888 
     73 H73        25.3104   22.2636    5.4271 H         1 UNK         0.0888 
     74 H74        25.0182   22.9996    3.8554 H         1 UNK         0.0888 
     75 H75        28.6934   24.1899    3.9787 H         1 UNK         0.3017 
     76 H76        27.8696   21.8817    2.5787 H         1 UNK         0.0873 
     77 H77        29.5408   24.2793    1.6458 H         1 UNK         0.0745 
     78 H78        29.3624   22.7812    0.7616 H         1 UNK         0.0745 
     79 H79        32.6425   21.3387    1.8588 H         1 UNK         0.0705 
     80 H80        31.4169   21.5027    0.6290 H         1 UNK         0.0705 
     81 H81        33.9761   23.3756    2.6026 H         1 UNK         0.1334 
     82 H82        34.4533   26.4525   -0.3413 H         1 UNK         0.1417 
     83 H83        31.4243   23.4593   -0.8469 H         1 UNK         0.1562 
     84 H84        32.1820   25.0517   -2.7682 H         1 UNK         0.0748 
     85 H85        33.1564   26.4371   -2.3460 H         1 UNK         0.0748 
     86 H86        32.1365   27.6993    0.2014 H         1 UNK         0.0940 
     87 H87        31.1262   26.3865    0.7646 H         1 UNK         0.0940 
     88 H88        30.2310   29.2122    0.0459 H         1 UNK         0.0703 
     89 H89        28.6039   26.9399   -0.0463 H         1 UNK         0.3081 
     90 H90        25.9119   27.5491    1.3062 H         1 UNK         0.0719 
     91 H91        25.5095   29.3987   -1.0975 H         1 UNK         0.0809 
     92 H92        24.2428   28.4143   -0.3628 H         1 UNK         0.0809 
     93 H93        25.0150   29.6932    0.5591 H         1 UNK         0.0809 
     94 H94        26.2234   25.8371   -0.0036 H         1 UNK         0.2990 
     95 H95        25.9022   25.2389   -3.2759 H         1 UNK         0.0690 
     96 H96        28.3291   25.7709   -3.7705 H         1 UNK         0.0788 
     97 H97        27.9945   24.0498   -3.7198 H         1 UNK         0.0788 
     98 H98        28.7945   24.8296   -2.3597 H         1 UNK         0.0788 
     99 H99        27.1165   23.6105   -1.2006 H         1 UNK         0.2993 
    100 H100       24.2250   23.0390    0.6545 H         1 UNK         0.0949 
    101 H101       25.3744   21.0122   -1.3404 H         1 UNK         0.0767 
    102 H102       24.4157   20.6343    0.0923 H         1 UNK         0.0767 
    103 H103       23.6879   21.5001   -1.2485 H         1 UNK         0.0767 
    104 H104       26.5810   21.5804    0.7994 H         1 UNK         0.3013 
    105 H105       29.0195   27.2256    2.6956 H         1 UNK         0.3121 
    106 H106       30.7613   28.2941    4.7428 H         1 UNK         0.0774 
    107 H107       28.1025   26.7687    4.9265 H         1 UNK         0.0815 
    108 H108       29.1916   27.0881    6.2692 H         1 UNK         0.0815 
    109 H109       29.7183   26.0532    4.9578 H         1 UNK         0.0815 
    110 H110       28.0591   29.6478    3.1050 H         1 UNK         0.2987 
    111 H111       27.5563   31.6330    5.2834 H         1 UNK         0.0949 
    112 H112       26.0285   31.1253    2.6717 H         1 UNK         0.0806 
    113 H113       25.5208   30.6010    4.2757 H         1 UNK         0.0806 
    114 H114       25.6235   32.3135    3.9005 H         1 UNK         0.0806 
    115 H115       28.5446   31.2493    1.8549 H         1 UNK         0.3010 
    116 H116       29.0518   34.0172    1.3893 H         1 UNK         0.0829 
    117 H117       28.5374   32.3663   -0.4109 H         1 UNK         0.0813 
    118 H118       30.0513   33.1997   -0.7297 H         1 UNK         0.0813 
    119 H119       30.0738   31.5529   -0.1179 H         1 UNK         0.0813 
    120 H120       31.1583   31.4233    2.6350 H         1 UNK         0.3038 
    121 H121       33.3795   33.3478    3.0339 H         1 UNK         0.0769 
    122 H122       33.6495   30.4937    1.9087 H         1 UNK         0.0811 
    123 H123       34.9650   31.6243    2.2014 H         1 UNK         0.0811 
    124 H124       33.7963   31.9563    0.9406 H         1 UNK         0.0811 
    125 H125       35.1112   31.8735    4.3461 H         1 UNK         0.3204 
    126 H126       33.8403   31.4352    6.9209 H         1 UNK         0.0748 
    127 H127       36.7853   31.3055    6.0767 H         1 UNK         0.0771 
    128 H128       35.9511   32.7489    6.6558 H         1 UNK         0.0771 
    129 H129       36.1834   31.3822    7.7273 H         1 UNK         0.0771 
    130 H130       33.7561   29.3119    4.5361 H         1 UNK         0.2980 
    131 H131       35.0227   26.9603    5.5129 H         1 UNK         0.0545 
    132 H132       32.6179   25.0777    7.3759 H         1 UNK         0.3459 
    133 H133       33.9761   24.9271    6.2929 H         1 UNK         0.3459 
    134 H134       33.4846   25.7867    3.8480 H         1 UNK         0.0616 
    135 H135       32.7085   27.3141    3.5358 H         1 UNK         0.0616 
    136 H136       36.3387   25.7312    1.4335 H         1 UNK         0.0634 
    137 H137       35.7121   25.0075    2.8963 H         1 UNK         0.0634 
@<TRIPOS>BOND
     1    1    2 1    
     2    1   72 1    
     3    1   73 1    
     4    1   74 1    
     5    2    3 2    
     6    2    4 am   BACKBONE|DICT|INTERRES
     7    4    5 1    
     8    4   75 1    
     9    5    6 1    
    10    5   35 1    
    11    5   76 1    
    12    6    7 1    
    13    6   77 1    
    14    6   78 1    
    15    7    8 1    
    16    8    9 1    
    17    8   79 1    
    18    8   80 1    
    19    9   10 ar   
    20    9   14 ar   
    21   10   11 ar   
    22   10   81 1    
    23   11   12 ar   
    24   11   71 1    
    25   12   13 ar   
    26   12   82 1    
    27   13   14 ar   
    28   13   15 1    
    29   14   83 1    
    30   15   16 1    
    31   15   84 1    
    32   15   85 1    
    33   16   17 1    
    34   17   18 1    
    35   17   86 1    
    36   17   87 1    
    37   18   19 1    
    38   18   37 1    
    39   18   88 1    
    40   19   20 am   BACKBONE|DICT|INTERRES
    41   19   89 1    
    42   20   21 2    
    43   20   22 1    
    44   22   23 1    
    45   22   24 1    
    46   22   90 1    
    47   23   91 1    
    48   23   92 1    
    49   23   93 1    
    50   24   25 am   BACKBONE|DICT|INTERRES
    51   24   94 1    
    52   25   26 2    
    53   25   27 1    
    54   27   28 1    
    55   27   29 1    
    56   27   95 1    
    57   28   96 1    
    58   28   97 1    
    59   28   98 1    
    60   29   30 am   BACKBONE|DICT|INTERRES
    61   29   99 1    
    62   30   31 2    
    63   30   32 1    
    64   32   33 1    
    65   32   34 1    
    66   32  100 1    
    67   33  101 1    
    68   33  102 1    
    69   33  103 1    
    70   34   35 am   BACKBONE|DICT|INTERRES
    71   34  104 1    
    72   35   36 2    
    73   37   38 2    
    74   37   39 am   BACKBONE|DICT|INTERRES
    75   39   40 1    
    76   39  105 1    
    77   40   41 1    
    78   40   42 1    
    79   40  106 1    
    80   41  107 1    
    81   41  108 1    
    82   41  109 1    
    83   42   43 2    
    84   42   44 am   BACKBONE|DICT|INTERRES
    85   44   45 1    
    86   44  110 1    
    87   45   46 1    
    88   45   47 1    
    89   45  111 1    
    90   46  112 1    
    91   46  113 1    
    92   46  114 1    
    93   47   48 2    
    94   47   49 am   BACKBONE|DICT|INTERRES
    95   49   50 1    
    96   49  115 1    
    97   50   51 1    
    98   50   52 1    
    99   50  116 1    
   100   51  117 1    
   101   51  118 1    
   102   51  119 1    
   103   52   53 2    
   104   52   54 am   BACKBONE|DICT|INTERRES
   105   54   55 1    
   106   54  120 1    
   107   55   56 1    
   108   55   57 1    
   109   55  121 1    
   110   56  122 1    
   111   56  123 1    
   112   56  124 1    
   113   57   58 2    
   114   57   59 am   BACKBONE|DICT|INTERRES
   115   59   60 1    
   116   59  125 1    
   117   60   61 1    
   118   60   62 1    
   119   60  126 1    
   120   61  127 1    
   121   61  128 1    
   122   61  129 1    
   123   62   63 2    
   124   62   64 am   BACKBONE|DICT|INTERRES
   125   64   65 1    
   126   64  130 1    
   127   65   66 1    
   128   65   69 1    
   129   65  131 1    
   130   66   67 am   BACKBONE|DICT|INTERRES
   131   66   68 2    
   132   67  132 1    
   133   67  133 1    
   134   69   70 1    
   135   69  134 1    
   136   69  135 1    
   137   70   71 1    
   138   71  136 1    
   139   71  137 1    
@<TRIPOS>SUBSTRUCTURE
     1 UNK         1 GROUP             0       ****    0 ROOT    
