@<TRIPOS>MOLECULE
3R136
137   139    1
SMALL
USER_CHARGES


@<TRIPOS>ATOM
      1 CA         33.3153   22.6098   -3.8498 C.3       0 UNK        -0.1979 
      2 C          32.7688   23.7127   -2.9551 C.2       0 UNK         0.4864 
      3 O          33.4923   24.6581   -2.6380 O.2       0 UNK        -0.5359 
      4 N          31.4998   23.6011   -2.5525 N.am      1 UNK        -0.4318 
      5 CA         30.7928   24.5530   -1.6983 C.3       1 UNK         0.0824 
      6 C6         31.1759   24.4389   -0.2005 C.3       12 UNK        -0.0944 
      7 S7         31.1171   22.7592    0.5214 S.3       12 UNK        -0.2672 
      8 C8         29.5686   22.8034    1.4897 C.3       12 UNK         0.0333 
      9 C9         29.6165   23.5505    2.8273 C.ar      12 UNK        -0.0807 
     10 C10        30.5795   24.5245    3.1309 C.ar      12 UNK        -0.0894 
     11 C11        30.5327   25.2299    4.3365 C.ar      12 UNK        -0.0804 
     12 C12        29.5352   24.9313    5.2674 C.ar      12 UNK        -0.0824 
     13 C13        28.5623   23.9707    4.9810 C.ar      12 UNK        -0.0762 
     14 C14        28.6144   23.2805    3.7663 C.ar      12 UNK        -0.0782 
     15 C15        27.4241   23.7208    5.9612 C.3       12 UNK         0.0230 
     16 S16        25.8425   24.4115    5.3657 S.3       12 UNK        -0.2608 
     17 C17        26.2670   26.1664    5.0830 C.3       12 UNK        -0.0989 
     18 CA         26.5420   26.4495    3.5792 C.3       5 UNK         0.0716 
     19 N          25.3904   26.2542    2.6964 N.am      5 UNK        -0.4135 
     20 C          24.1954   26.8622    2.7553 C.2       4 UNK         0.5031 
     21 O          23.8790   27.6748    3.6249 O.2       4 UNK        -0.5229 
     22 CA         23.1653   26.5338    1.6515 C.3       4 UNK         0.0329 
     23 CB         22.8218   27.7961    0.8410 C.3       4 UNK        -0.2001 
     24 N          23.6050   25.4920    0.7211 N.am      4 UNK        -0.4303 
     25 C          23.6850   24.1816    0.9912 C.2       3 UNK         0.5044 
     26 O          23.2639   23.6694    2.0280 O.2       3 UNK        -0.5152 
     27 CA         24.3914   23.2987   -0.0578 C.3       3 UNK         0.0319 
     28 CB         23.3597   22.5021   -0.8727 C.3       3 UNK        -0.2001 
     29 N          25.2661   24.0384   -0.9798 N.am      3 UNK        -0.4354 
     30 C          26.3571   24.7319   -0.6241 C.2       2 UNK         0.4964 
     31 O          26.7480   24.8519    0.5393 O.2       2 UNK        -0.5047 
     32 CA         27.0693   25.5024   -1.7419 C.3       2 UNK         0.0288 
     33 CB         26.6154   26.9715   -1.7370 C.3       2 UNK        -0.2113 
     34 N          28.5195   25.4494   -1.5684 N.am      2 UNK        -0.4145 
     35 C          29.2821   24.4157   -1.9456 C.2       1 UNK         0.5006 
     36 O          28.8398   23.3975   -2.4884 O.2       1 UNK        -0.5103 
     37 C          27.1849   27.8195    3.3100 C.2       5 UNK         0.5055 
     38 O          27.1025   28.7280    4.1392 O.2       5 UNK        -0.5220 
     39 N          27.8072   27.9309    2.1316 N.am      6 UNK        -0.4450 
     40 CA         28.6242   29.0594    1.7029 C.3       6 UNK         0.0367 
     41 CB         27.7596   30.0796    0.9435 C.3       6 UNK        -0.1929 
     42 C          29.7456   28.5074    0.8172 C.2       6 UNK         0.5070 
     43 O          29.5346   27.5046    0.1280 O.2       6 UNK        -0.5237 
     44 N          30.9071   29.1685    0.8393 N.am      7 UNK        -0.4739 
     45 CA         32.0943   28.7724    0.0787 C.3       7 UNK         0.0276 
     46 CB         32.8289   27.6170    0.7890 C.3       7 UNK        -0.1927 
     47 C          33.0289   29.9704   -0.1195 C.2       7 UNK         0.5013 
     48 O          33.3995   30.2793   -1.2521 O.2       7 UNK        -0.5193 
     49 N          33.3814   30.6236    0.9921 N.am      8 UNK        -0.4253 
     50 CA         34.2802   31.7686    1.0993 C.3       8 UNK         0.0242 
     51 CB         35.7421   31.3142    0.9074 C.3       8 UNK        -0.2000 
     52 C          34.0662   32.3862    2.4875 C.2       8 UNK         0.4948 
     53 O          33.3203   31.8209    3.2911 O.2       8 UNK        -0.5275 
     54 N          34.7469   33.5044    2.7730 N.am      9 UNK        -0.4246 
     55 CA         34.6543   34.2575    4.0343 C.3       9 UNK         0.0261 
     56 CB         35.5469   35.5063    3.9400 C.3       9 UNK        -0.1959 
     57 C          34.9854   33.4580    5.3132 C.2       9 UNK         0.5033 
     58 O          34.5365   33.8433    6.3935 O.2       9 UNK        -0.5390 
     59 N          35.7480   32.3645    5.1755 N.am      10 UNK        -0.4215 
     60 CA         36.0571   31.4165    6.2484 C.3       10 UNK         0.0240 
     61 CB         37.2683   30.5670    5.8282 C.3       10 UNK        -0.1982 
     62 C          34.8734   30.5061    6.6352 C.2       10 UNK         0.4970 
     63 O          34.8863   29.9586    7.7385 O.2       10 UNK        -0.4916 
     64 N          33.8932   30.3359    5.7371 N.am      11 UNK        -0.4279 
     65 CA         32.6756   29.5492    5.9655 C.3       11 UNK         0.1003 
     66 C          31.6851   30.3197    6.8816 C.2       11 UNK         0.5709 
     67 N          31.1664   29.6798    7.9212 N.am      11 UNK        -0.7358 
     68 O          31.3670   31.4831    6.6430 O.2       11 UNK        -0.4999 
     69 C69        32.0474   29.1402    4.6077 C.3       12 UNK        -0.0954 
     70 S70        30.6782   27.9478    4.7389 S.3       12 UNK        -0.2268 
     71 C71        31.5315   26.3454    4.6147 C.3       12 UNK         0.0203 
     72 H72        32.5696   21.8402   -4.0490 H         1 UNK         0.0888 
     73 H73        34.1741   22.1346   -3.3766 H         1 UNK         0.0888 
     74 H74        33.6376   23.0253   -4.8042 H         1 UNK         0.0888 
     75 H75        30.9192   22.8309   -2.8619 H         1 UNK         0.3017 
     76 H76        31.0595   25.5578   -2.0350 H         1 UNK         0.0873 
     77 H77        30.5589   25.1154    0.3903 H         1 UNK         0.0745 
     78 H78        32.2006   24.7903   -0.0781 H         1 UNK         0.0745 
     79 H79        28.7792   23.2313    0.8729 H         1 UNK         0.0705 
     80 H80        29.2786   21.7684    1.6763 H         1 UNK         0.0705 
     81 H81        31.3649   24.7597    2.4307 H         1 UNK         0.1334 
     82 H82        29.4927   25.4833    6.1966 H         1 UNK         0.1417 
     83 H83        27.8470   22.5525    3.5391 H         1 UNK         0.1562 
     84 H84        27.6536   24.1468    6.9393 H         1 UNK         0.0748 
     85 H85        27.3071   22.6472    6.1158 H         1 UNK         0.0748 
     86 H86        27.1370   26.4242    5.6890 H         1 UNK         0.0940 
     87 H87        25.4571   26.7908    5.4612 H         1 UNK         0.0940 
     88 H88        27.2799   25.7194    3.2464 H         1 UNK         0.0703 
     89 H89        25.5726   25.6291    1.9182 H         1 UNK         0.3081 
     90 H90        22.2577   26.1874    2.1502 H         1 UNK         0.0719 
     91 H91        22.4354   28.5847    1.4883 H         1 UNK         0.0809 
     92 H92        23.6969   28.1968    0.3277 H         1 UNK         0.0809 
     93 H93        22.0554   27.5924    0.0928 H         1 UNK         0.0809 
     94 H94        23.9608   25.8072   -0.1690 H         1 UNK         0.2990 
     95 H95        25.0166   22.5903    0.4899 H         1 UNK         0.0690 
     96 H96        23.8451   21.8032   -1.5542 H         1 UNK         0.0788 
     97 H97        22.7172   23.1574   -1.4624 H         1 UNK         0.0788 
     98 H98        22.7133   21.9155   -0.2181 H         1 UNK         0.0788 
     99 H99        25.0069   24.0115   -1.9561 H         1 UNK         0.2993 
    100 H100       26.8126   25.0614   -2.7080 H         1 UNK         0.0949 
    101 H101       26.8086   27.4482   -0.7756 H         1 UNK         0.0767 
    102 H102       27.1309   27.5488   -2.5049 H         1 UNK         0.0767 
    103 H103       25.5458   27.0539   -1.9335 H         1 UNK         0.0767 
    104 H104       28.9404   26.2183   -1.0477 H         1 UNK         0.3013 
    105 H105       27.8673   27.1251    1.5190 H         1 UNK         0.3121 
    106 H106       29.0722   29.5376    2.5769 H         1 UNK         0.0774 
    107 H107       27.3142   29.6467    0.0476 H         1 UNK         0.0815 
    108 H108       26.9511   30.4567    1.5701 H         1 UNK         0.0815 
    109 H109       28.3542   30.9382    0.6298 H         1 UNK         0.0815 
    110 H110       30.9753   30.0249    1.3714 H         1 UNK         0.2987 
    111 H111       31.7776   28.4310   -0.9099 H         1 UNK         0.0949 
    112 H112       32.1481   26.8094    1.0481 H         1 UNK         0.0806 
    113 H113       33.6061   27.1997    0.1477 H         1 UNK         0.0806 
    114 H114       33.3077   27.9389    1.7136 H         1 UNK         0.0806 
    115 H115       33.0065   30.3397    1.8889 H         1 UNK         0.3010 
    116 H116       34.0121   32.5095    0.3433 H         1 UNK         0.0829 
    117 H117       36.4347   32.1538    0.9738 H         1 UNK         0.0813 
    118 H118       35.8928   30.8594   -0.0718 H         1 UNK         0.0813 
    119 H119       36.0382   30.5831    1.6608 H         1 UNK         0.0813 
    120 H120       35.3463   33.8981    2.0613 H         1 UNK         0.3038 
    121 H121       33.6181   34.5878    4.1326 H         1 UNK         0.0769 
    122 H122       35.2485   36.1478    3.1106 H         1 UNK         0.0811 
    123 H123       36.5963   35.2427    3.8025 H         1 UNK         0.0811 
    124 H124       35.4785   36.1058    4.8491 H         1 UNK         0.0811 
    125 H125       36.0860   32.1362    4.2524 H         1 UNK         0.3204 
    126 H126       36.3333   31.9858    7.1386 H         1 UNK         0.0748 
    127 H127       37.5501   29.8702    6.6191 H         1 UNK         0.0771 
    128 H128       37.0586   29.9775    4.9345 H         1 UNK         0.0771 
    129 H129       38.1392   31.1902    5.6242 H         1 UNK         0.0771 
    130 H130       33.8967   30.8876    4.8849 H         1 UNK         0.2980 
    131 H131       32.9734   28.6301    6.4746 H         1 UNK         0.0545 
    132 H132       31.4119   28.7223    8.1174 H         1 UNK         0.3459 
    133 H133       30.5143   30.1630    8.5184 H         1 UNK         0.3459 
    134 H134       32.8113   28.7201    3.9530 H         1 UNK         0.0616 
    135 H135       31.6584   30.0183    4.0911 H         1 UNK         0.0616 
    136 H136       32.0637   26.1428    5.5450 H         1 UNK         0.0634 
    137 H137       32.2820   26.3942    3.8244 H         1 UNK         0.0634 
@<TRIPOS>BOND
     1    1    2 1    
     2    1   72 1    
     3    1   73 1    
     4    1   74 1    
     5    2    3 2    
     6    2    4 am   BACKBONE|DICT|INTERRES
     7    4    5 1    
     8    4   75 1    
     9    5    6 1    
    10    5   35 1    
    11    5   76 1    
    12    6    7 1    
    13    6   77 1    
    14    6   78 1    
    15    7    8 1    
    16    8    9 1    
    17    8   79 1    
    18    8   80 1    
    19    9   10 ar   
    20    9   14 ar   
    21   10   11 ar   
    22   10   81 1    
    23   11   12 ar   
    24   11   71 1    
    25   12   13 ar   
    26   12   82 1    
    27   13   14 ar   
    28   13   15 1    
    29   14   83 1    
    30   15   16 1    
    31   15   84 1    
    32   15   85 1    
    33   16   17 1    
    34   17   18 1    
    35   17   86 1    
    36   17   87 1    
    37   18   19 1    
    38   18   37 1    
    39   18   88 1    
    40   19   20 am   BACKBONE|DICT|INTERRES
    41   19   89 1    
    42   20   21 2    
    43   20   22 1    
    44   22   23 1    
    45   22   24 1    
    46   22   90 1    
    47   23   91 1    
    48   23   92 1    
    49   23   93 1    
    50   24   25 am   BACKBONE|DICT|INTERRES
    51   24   94 1    
    52   25   26 2    
    53   25   27 1    
    54   27   28 1    
    55   27   29 1    
    56   27   95 1    
    57   28   96 1    
    58   28   97 1    
    59   28   98 1    
    60   29   30 am   BACKBONE|DICT|INTERRES
    61   29   99 1    
    62   30   31 2    
    63   30   32 1    
    64   32   33 1    
    65   32   34 1    
    66   32  100 1    
    67   33  101 1    
    68   33  102 1    
    69   33  103 1    
    70   34   35 am   BACKBONE|DICT|INTERRES
    71   34  104 1    
    72   35   36 2    
    73   37   38 2    
    74   37   39 am   BACKBONE|DICT|INTERRES
    75   39   40 1    
    76   39  105 1    
    77   40   41 1    
    78   40   42 1    
    79   40  106 1    
    80   41  107 1    
    81   41  108 1    
    82   41  109 1    
    83   42   43 2    
    84   42   44 am   BACKBONE|DICT|INTERRES
    85   44   45 1    
    86   44  110 1    
    87   45   46 1    
    88   45   47 1    
    89   45  111 1    
    90   46  112 1    
    91   46  113 1    
    92   46  114 1    
    93   47   48 2    
    94   47   49 am   BACKBONE|DICT|INTERRES
    95   49   50 1    
    96   49  115 1    
    97   50   51 1    
    98   50   52 1    
    99   50  116 1    
   100   51  117 1    
   101   51  118 1    
   102   51  119 1    
   103   52   53 2    
   104   52   54 am   BACKBONE|DICT|INTERRES
   105   54   55 1    
   106   54  120 1    
   107   55   56 1    
   108   55   57 1    
   109   55  121 1    
   110   56  122 1    
   111   56  123 1    
   112   56  124 1    
   113   57   58 2    
   114   57   59 am   BACKBONE|DICT|INTERRES
   115   59   60 1    
   116   59  125 1    
   117   60   61 1    
   118   60   62 1    
   119   60  126 1    
   120   61  127 1    
   121   61  128 1    
   122   61  129 1    
   123   62   63 2    
   124   62   64 am   BACKBONE|DICT|INTERRES
   125   64   65 1    
   126   64  130 1    
   127   65   66 1    
   128   65   69 1    
   129   65  131 1    
   130   66   67 am   BACKBONE|DICT|INTERRES
   131   66   68 2    
   132   67  132 1    
   133   67  133 1    
   134   69   70 1    
   135   69  134 1    
   136   69  135 1    
   137   70   71 1    
   138   71  136 1    
   139   71  137 1    
@<TRIPOS>SUBSTRUCTURE
     1 UNK         1 GROUP             0       ****    0 ROOT    
