@<TRIPOS>MOLECULE
3R136
137   139    1
SMALL
USER_CHARGES


@<TRIPOS>ATOM
      1 CA         29.5915   20.0347   -4.1024 C.3       0 UNK        -0.1979 
      2 C          29.2512   20.4641   -2.6828 C.2       0 UNK         0.4864 
      3 O          28.8085   19.6340   -1.8879 O.2       0 UNK        -0.5359 
      4 N          29.4529   21.7531   -2.3698 N.am      1 UNK        -0.4318 
      5 CA         29.2111   22.3895   -1.0655 C.3       1 UNK         0.0824 
      6 C6         30.1866   21.9163    0.0488 C.3       12 UNK        -0.0944 
      7 S7         31.9143   22.3768   -0.3091 S.3       12 UNK        -0.2672 
      8 C8         31.9705   24.0957    0.2960 C.3       12 UNK         0.0333 
      9 C9         32.0835   24.1817    1.8119 C.ar      12 UNK        -0.0807 
     10 C10        33.3429   24.1626    2.4177 C.ar      12 UNK        -0.0894 
     11 C11        33.4668   24.2885    3.8041 C.ar      12 UNK        -0.0804 
     12 C12        32.3183   24.4276    4.5879 C.ar      12 UNK        -0.0824 
     13 C13        31.0514   24.4557    3.9963 C.ar      12 UNK        -0.0762 
     14 C14        30.9411   24.3243    2.6071 C.ar      12 UNK        -0.0782 
     15 C15        29.8140   24.6466    4.8696 C.3       12 UNK         0.0230 
     16 S16        28.6858   25.9574    4.2808 S.3       12 UNK        -0.2608 
     17 C17        29.8095   27.3903    4.0755 C.3       12 UNK        -0.0989 
     18 CA         29.2842   28.4495    3.0712 C.3       5 UNK         0.0716 
     19 N          28.7493   27.8317    1.8547 N.am      5 UNK        -0.4135 
     20 C          28.3804   28.4486    0.7259 C.2       4 UNK         0.5031 
     21 O          28.4962   29.6588    0.5319 O.2       4 UNK        -0.5229 
     22 CA         27.6981   27.5702   -0.3380 C.3       4 UNK         0.0329 
     23 CB         28.7384   27.0321   -1.3328 C.3       4 UNK        -0.2001 
     24 N          26.9255   26.4476    0.2144 N.am      4 UNK        -0.4303 
     25 C          25.9099   26.5509    1.0873 C.2       3 UNK         0.5044 
     26 O          25.5454   27.6236    1.5699 O.2       3 UNK        -0.5152 
     27 CA         25.2195   25.2451    1.5340 C.3       3 UNK         0.0319 
     28 CB         23.7256   25.4531    1.8619 C.3       3 UNK        -0.2001 
     29 N          25.4059   24.1137    0.6138 N.am      3 UNK        -0.4354 
     30 C          24.9762   23.9966   -0.6515 C.2       2 UNK         0.4964 
     31 O          24.3423   24.8687   -1.2474 O.2       2 UNK        -0.5047 
     32 CA         25.3722   22.6947   -1.3789 C.3       2 UNK         0.0288 
     33 CB         24.6678   22.5371   -2.7399 C.3       2 UNK        -0.2113 
     34 N          26.8215   22.6136   -1.5860 N.am      2 UNK        -0.4145 
     35 C          27.7271   22.3261   -0.6393 C.2       1 UNK         0.5006 
     36 O          27.4204   22.0604    0.5257 O.2       1 UNK        -0.5103 
     37 C          28.3380   29.4648    3.7501 C.2       5 UNK         0.5055 
     38 O          28.8108   30.2358    4.5851 O.2       5 UNK        -0.5220 
     39 N          27.0474   29.4967    3.3794 N.am      6 UNK        -0.4450 
     40 CA         26.1154   30.5552    3.7802 C.3       6 UNK         0.0367 
     41 CB         24.6794   30.1381    3.4263 C.3       6 UNK        -0.1929 
     42 C          26.4498   31.9207    3.1462 C.2       6 UNK         0.5070 
     43 O          26.0882   32.9481    3.7207 O.2       6 UNK        -0.5237 
     44 N          27.1280   31.9115    1.9895 N.am      7 UNK        -0.4739 
     45 CA         27.6047   33.1017    1.2860 C.3       7 UNK         0.0276 
     46 CB         27.0953   33.0765   -0.1655 C.3       7 UNK        -0.1927 
     47 C          29.1367   33.1681    1.3312 C.2       7 UNK         0.5013 
     48 O          29.6911   34.1644    1.7968 O.2       7 UNK        -0.5193 
     49 N          29.8010   32.1002    0.8713 N.am      8 UNK        -0.4253 
     50 CA         31.2562   31.9674    0.8121 C.3       8 UNK         0.0242 
     51 CB         31.6224   31.0834   -0.3950 C.3       8 UNK        -0.2000 
     52 C          31.7949   31.4052    2.1367 C.2       8 UNK         0.4948 
     53 O          32.3763   30.3189    2.1604 O.2       8 UNK        -0.5275 
     54 N          31.5825   32.1474    3.2299 N.am      9 UNK        -0.4246 
     55 CA         31.8814   31.7662    4.6168 C.3       9 UNK         0.0261 
     56 CB         31.0894   32.6928    5.5586 C.3       9 UNK        -0.1959 
     57 C          33.3844   31.7137    4.9765 C.2       9 UNK         0.5033 
     58 O          33.7545   32.0522    6.1024 O.2       9 UNK        -0.5390 
     59 N          34.2309   31.2661    4.0403 N.am      10 UNK        -0.4215 
     60 CA         35.6812   31.1128    4.2002 C.3       10 UNK         0.0240 
     61 CB         36.3086   30.7763    2.8379 C.3       10 UNK        -0.1982 
     62 C          36.0671   30.0565    5.2507 C.2       10 UNK         0.4970 
     63 O          37.0910   30.2115    5.9171 O.2       10 UNK        -0.4916 
     64 N          35.2270   29.0245    5.3918 N.am      11 UNK        -0.4279 
     65 CA         35.3201   27.9910    6.4326 C.3       11 UNK         0.1003 
     66 C          34.7606   28.4357    7.8181 C.2       11 UNK         0.5709 
     67 N          34.2274   29.6423    7.9811 N.am      11 UNK        -0.7358 
     68 O          34.8241   27.6700    8.7769 O.2       11 UNK        -0.4999 
     69 C69        34.6814   26.6593    5.9559 C.3       12 UNK        -0.0954 
     70 S70        35.5583   25.9527    4.5205 S.3       12 UNK        -0.2268 
     71 C71        34.8442   24.2802    4.4496 C.3       12 UNK         0.0203 
     72 H72        29.9748   20.8620   -4.6994 H         1 UNK         0.0888 
     73 H73        30.3485   19.2510   -4.0852 H         1 UNK         0.0888 
     74 H74        28.7045   19.6413   -4.5983 H         1 UNK         0.0888 
     75 H75        29.8298   22.3668   -3.0791 H         1 UNK         0.3017 
     76 H76        29.3950   23.4527   -1.2243 H         1 UNK         0.0873 
     77 H77        29.9163   22.3278    1.0205 H         1 UNK         0.0745 
     78 H78        30.1350   20.8331    0.1685 H         1 UNK         0.0745 
     79 H79        32.8285   24.5927   -0.1596 H         1 UNK         0.0705 
     80 H80        31.0940   24.6431   -0.0508 H         1 UNK         0.0705 
     81 H81        34.2303   24.0617    1.8074 H         1 UNK         0.1334 
     82 H82        32.4151   24.5284    5.6604 H         1 UNK         0.1417 
     83 H83        29.9638   24.3546    2.1465 H         1 UNK         0.1562 
     84 H84        30.1005   24.8821    5.8959 H         1 UNK         0.0748 
     85 H85        29.2657   23.7047    4.9128 H         1 UNK         0.0748 
     86 H86        30.7761   27.0404    3.7134 H         1 UNK         0.0940 
     87 H87        30.0175   27.8261    5.0550 H         1 UNK         0.0940 
     88 H88        30.1440   29.0384    2.7516 H         1 UNK         0.0703 
     89 H89        28.5740   26.8408    1.9301 H         1 UNK         0.3081 
     90 H90        26.9992   28.2084   -0.8827 H         1 UNK         0.0719 
     91 H91        29.4517   26.3627   -0.8512 H         1 UNK         0.0809 
     92 H92        28.2637   26.4890   -2.1503 H         1 UNK         0.0809 
     93 H93        29.3090   27.8484   -1.7786 H         1 UNK         0.0809 
     94 H94        27.1471   25.5283   -0.1349 H         1 UNK         0.2990 
     95 H95        25.7174   24.9565    2.4610 H         1 UNK         0.0690 
     96 H96        23.2599   24.5268    2.1978 H         1 UNK         0.0788 
     97 H97        23.1679   25.8164    0.9982 H         1 UNK         0.0788 
     98 H98        23.5974   26.1853    2.6603 H         1 UNK         0.0788 
     99 H99        25.9731   23.3482    0.9694 H         1 UNK         0.2993 
    100 H100       25.0600   21.8606   -0.7461 H         1 UNK         0.0949 
    101 H101       24.9486   23.3279   -3.4368 H         1 UNK         0.0767 
    102 H102       24.9105   21.5802   -3.2028 H         1 UNK         0.0767 
    103 H103       23.5835   22.5732   -2.6245 H         1 UNK         0.0767 
    104 H104       27.1533   22.8295   -2.5152 H         1 UNK         0.3013 
    105 H105       26.6982   28.8169    2.7098 H         1 UNK         0.3121 
    106 H106       26.1789   30.6700    4.8645 H         1 UNK         0.0774 
    107 H107       24.5430   30.0380    2.3487 H         1 UNK         0.0815 
    108 H108       23.9606   30.8796    3.7777 H         1 UNK         0.0815 
    109 H109       24.4159   29.1860    3.8871 H         1 UNK         0.0815 
    110 H110       27.4099   31.0177    1.6010 H         1 UNK         0.2987 
    111 H111       27.2236   34.0090    1.7601 H         1 UNK         0.0949 
    112 H112       27.4138   32.1785   -0.6967 H         1 UNK         0.0806 
    113 H113       26.0064   33.1130   -0.1995 H         1 UNK         0.0806 
    114 H114       27.4654   33.9370   -0.7246 H         1 UNK         0.0806 
    115 H115       29.2715   31.2769    0.5884 H         1 UNK         0.3010 
    116 H116       31.7102   32.9489    0.6590 H         1 UNK         0.0829 
    117 H117       31.2569   31.5147   -1.3270 H         1 UNK         0.0813 
    118 H118       32.7040   30.9779   -0.4889 H         1 UNK         0.0813 
    119 H119       31.2028   30.0806   -0.3038 H         1 UNK         0.0813 
    120 H120       31.1029   33.0305    3.1010 H         1 UNK         0.3038 
    121 H121       31.5033   30.7525    4.7634 H         1 UNK         0.0769 
    122 H122       31.4334   33.7254    5.4897 H         1 UNK         0.0811 
    123 H123       31.1928   32.3807    6.5987 H         1 UNK         0.0811 
    124 H124       30.0239   32.6760    5.3274 H         1 UNK         0.0811 
    125 H125       33.8167   30.9376    3.1705 H         1 UNK         0.3204 
    126 H126       36.0816   32.0715    4.5365 H         1 UNK         0.0748 
    127 H127       37.3919   30.6767    2.9206 H         1 UNK         0.0771 
    128 H128       35.9237   29.8376    2.4368 H         1 UNK         0.0771 
    129 H129       36.1114   31.5599    2.1060 H         1 UNK         0.0771 
    130 H130       34.4180   28.9762    4.7918 H         1 UNK         0.2980 
    131 H131       36.3791   27.7930    6.6090 H         1 UNK         0.0545 
    132 H132       34.1900   30.3144    7.2253 H         1 UNK         0.3459 
    133 H133       33.8811   29.9000    8.8914 H         1 UNK         0.3459 
    134 H134       33.6327   26.8098    5.6944 H         1 UNK         0.0616 
    135 H135       34.7000   25.9158    6.7547 H         1 UNK         0.0616 
    136 H136       34.7988   23.8505    5.4514 H         1 UNK         0.0634 
    137 H137       35.5149   23.6392    3.8756 H         1 UNK         0.0634 
@<TRIPOS>BOND
     1    1    2 1    
     2    1   72 1    
     3    1   73 1    
     4    1   74 1    
     5    2    3 2    
     6    2    4 am   BACKBONE|DICT|INTERRES
     7    4    5 1    
     8    4   75 1    
     9    5    6 1    
    10    5   35 1    
    11    5   76 1    
    12    6    7 1    
    13    6   77 1    
    14    6   78 1    
    15    7    8 1    
    16    8    9 1    
    17    8   79 1    
    18    8   80 1    
    19    9   10 ar   
    20    9   14 ar   
    21   10   11 ar   
    22   10   81 1    
    23   11   12 ar   
    24   11   71 1    
    25   12   13 ar   
    26   12   82 1    
    27   13   14 ar   
    28   13   15 1    
    29   14   83 1    
    30   15   16 1    
    31   15   84 1    
    32   15   85 1    
    33   16   17 1    
    34   17   18 1    
    35   17   86 1    
    36   17   87 1    
    37   18   19 1    
    38   18   37 1    
    39   18   88 1    
    40   19   20 am   BACKBONE|DICT|INTERRES
    41   19   89 1    
    42   20   21 2    
    43   20   22 1    
    44   22   23 1    
    45   22   24 1    
    46   22   90 1    
    47   23   91 1    
    48   23   92 1    
    49   23   93 1    
    50   24   25 am   BACKBONE|DICT|INTERRES
    51   24   94 1    
    52   25   26 2    
    53   25   27 1    
    54   27   28 1    
    55   27   29 1    
    56   27   95 1    
    57   28   96 1    
    58   28   97 1    
    59   28   98 1    
    60   29   30 am   BACKBONE|DICT|INTERRES
    61   29   99 1    
    62   30   31 2    
    63   30   32 1    
    64   32   33 1    
    65   32   34 1    
    66   32  100 1    
    67   33  101 1    
    68   33  102 1    
    69   33  103 1    
    70   34   35 am   BACKBONE|DICT|INTERRES
    71   34  104 1    
    72   35   36 2    
    73   37   38 2    
    74   37   39 am   BACKBONE|DICT|INTERRES
    75   39   40 1    
    76   39  105 1    
    77   40   41 1    
    78   40   42 1    
    79   40  106 1    
    80   41  107 1    
    81   41  108 1    
    82   41  109 1    
    83   42   43 2    
    84   42   44 am   BACKBONE|DICT|INTERRES
    85   44   45 1    
    86   44  110 1    
    87   45   46 1    
    88   45   47 1    
    89   45  111 1    
    90   46  112 1    
    91   46  113 1    
    92   46  114 1    
    93   47   48 2    
    94   47   49 am   BACKBONE|DICT|INTERRES
    95   49   50 1    
    96   49  115 1    
    97   50   51 1    
    98   50   52 1    
    99   50  116 1    
   100   51  117 1    
   101   51  118 1    
   102   51  119 1    
   103   52   53 2    
   104   52   54 am   BACKBONE|DICT|INTERRES
   105   54   55 1    
   106   54  120 1    
   107   55   56 1    
   108   55   57 1    
   109   55  121 1    
   110   56  122 1    
   111   56  123 1    
   112   56  124 1    
   113   57   58 2    
   114   57   59 am   BACKBONE|DICT|INTERRES
   115   59   60 1    
   116   59  125 1    
   117   60   61 1    
   118   60   62 1    
   119   60  126 1    
   120   61  127 1    
   121   61  128 1    
   122   61  129 1    
   123   62   63 2    
   124   62   64 am   BACKBONE|DICT|INTERRES
   125   64   65 1    
   126   64  130 1    
   127   65   66 1    
   128   65   69 1    
   129   65  131 1    
   130   66   67 am   BACKBONE|DICT|INTERRES
   131   66   68 2    
   132   67  132 1    
   133   67  133 1    
   134   69   70 1    
   135   69  134 1    
   136   69  135 1    
   137   70   71 1    
   138   71  136 1    
   139   71  137 1    
@<TRIPOS>SUBSTRUCTURE
     1 UNK         1 GROUP             0       ****    0 ROOT    
