@<TRIPOS>MOLECULE
3R136
137   139    1
SMALL
USER_CHARGES


@<TRIPOS>ATOM
      1 CA         28.6324   22.0478    1.2316 C.3       0 UNK        -0.1979 
      2 C          29.0131   23.0519    0.1550 C.2       0 UNK         0.4864 
      3 O          28.8168   22.7803   -1.0306 O.2       0 UNK        -0.5359 
      4 N          29.5434   24.2176    0.5510 N.am      1 UNK        -0.4318 
      5 CA         29.9029   25.3196   -0.3474 C.3       1 UNK         0.0824 
      6 C6         30.6877   26.4289    0.3893 C.3       12 UNK        -0.0944 
      7 S7         32.4530   26.0080    0.6065 S.3       12 UNK        -0.2672 
      8 C8         32.4826   24.8437    2.0153 C.3       12 UNK         0.0333 
      9 C9         31.6908   25.3240    3.2250 C.ar      12 UNK        -0.0807 
     10 C10        31.8970   26.6039    3.7480 C.ar      12 UNK        -0.0894 
     11 C11        31.1416   27.0606    4.8294 C.ar      12 UNK        -0.0804 
     12 C12        30.1844   26.2206    5.4030 C.ar      12 UNK        -0.0824 
     13 C13        29.9810   24.9307    4.9031 C.ar      12 UNK        -0.0762 
     14 C14        30.7451   24.4840    3.8216 C.ar      12 UNK        -0.0782 
     15 C15        28.9296   24.0231    5.5263 C.3       12 UNK         0.0230 
     16 S16        27.4221   23.9217    4.5062 S.3       12 UNK        -0.2608 
     17 C17        26.8807   25.6638    4.4660 C.3       12 UNK        -0.0989 
     18 CA         27.0618   26.2783    3.0494 C.3       5 UNK         0.0716 
     19 N          26.1689   25.6980    2.0338 N.am      5 UNK        -0.4135 
     20 C          24.8275   25.7692    2.0218 C.2       4 UNK         0.5031 
     21 O          24.1572   26.2221    2.9506 O.2       4 UNK        -0.5229 
     22 CA         24.0842   25.2927    0.7635 C.3       4 UNK         0.0329 
     23 CB         23.3925   26.4773    0.0638 C.3       4 UNK        -0.2001 
     24 N          24.9419   24.6141   -0.2119 N.am      4 UNK        -0.4303 
     25 C          24.6104   23.4867   -0.8591 C.2       3 UNK         0.5044 
     26 O          23.5986   22.8306   -0.6048 O.2       3 UNK        -0.5152 
     27 CA         25.5556   22.9972   -1.9786 C.3       3 UNK         0.0319 
     28 CB         24.7891   22.3896   -3.1731 C.3       3 UNK        -0.2001 
     29 N          26.5233   24.0053   -2.4319 N.am      3 UNK        -0.4354 
     30 C          26.2704   25.1871   -3.0221 C.2       2 UNK         0.4964 
     31 O          25.1443   25.5520   -3.3615 O.2       2 UNK        -0.5047 
     32 CA         27.4696   26.1387   -3.2362 C.3       2 UNK         0.0288 
     33 CB         27.0594   27.6228   -3.1304 C.3       2 UNK        -0.2113 
     34 N          28.6144   25.8536   -2.3575 N.am      2 UNK        -0.4145 
     35 C          28.6313   25.8752   -1.0159 C.2       1 UNK         0.5006 
     36 O          27.6829   26.2364   -0.3103 O.2       1 UNK        -0.5103 
     37 C          26.9530   27.8187    3.0231 C.2       5 UNK         0.5055 
     38 O          26.7596   28.4537    4.0617 O.2       5 UNK        -0.5220 
     39 N          27.0408   28.3877    1.8113 N.am      6 UNK        -0.4450 
     40 CA         26.7212   29.7811    1.4789 C.3       6 UNK         0.0367 
     41 CB         26.4406   29.8639   -0.0332 C.3       6 UNK        -0.1929 
     42 C          27.7572   30.8304    1.9432 C.2       6 UNK         0.5070 
     43 O          28.0924   31.7313    1.1727 O.2       6 UNK        -0.5237 
     44 N          28.2259   30.7160    3.1948 N.am      7 UNK        -0.4739 
     45 CA         29.0984   31.6572    3.9181 C.3       7 UNK         0.0276 
     46 CB         28.3051   32.9281    4.2900 C.3       7 UNK        -0.1927 
     47 C          30.4263   31.9795    3.1978 C.2       7 UNK         0.5013 
     48 O          30.8890   33.1221    3.2354 O.2       7 UNK        -0.5193 
     49 N          31.0018   30.9680    2.5355 N.am      8 UNK        -0.4253 
     50 CA         32.2485   31.0631    1.7750 C.3       8 UNK         0.0242 
     51 CB         32.3898   29.7969    0.9143 C.3       8 UNK        -0.2000 
     52 C          33.4832   31.2402    2.6757 C.2       8 UNK         0.4948 
     53 O          33.4490   30.8905    3.8564 O.2       8 UNK        -0.5275 
     54 N          34.5888   31.7025    2.0751 N.am      9 UNK        -0.4246 
     55 CA         35.8955   31.8888    2.7250 C.3       9 UNK         0.0261 
     56 CB         36.8436   32.5997    1.7444 C.3       9 UNK        -0.1959 
     57 C          36.5442   30.5946    3.2622 C.2       9 UNK         0.5033 
     58 O          37.5009   30.6753    4.0337 O.2       9 UNK        -0.5390 
     59 N          36.0135   29.4317    2.8603 N.am      10 UNK        -0.4215 
     60 CA         36.3825   28.1047    3.3522 C.3       10 UNK         0.0240 
     61 CB         35.8066   27.0443    2.3990 C.3       10 UNK        -0.1982 
     62 C          35.9570   27.8245    4.8091 C.2       10 UNK         0.4970 
     63 O          36.4363   26.8385    5.3712 O.2       10 UNK        -0.4916 
     64 N          35.0990   28.6668    5.4037 N.am      11 UNK        -0.4279 
     65 CA         34.7295   28.6056    6.8249 C.3       11 UNK         0.1003 
     66 C          34.7145   30.0134    7.4844 C.2       11 UNK         0.5709 
     67 N          34.4685   30.0866    8.7860 N.am      11 UNK        -0.7358 
     68 O          34.9502   31.0364    6.8440 O.2       11 UNK        -0.4999 
     69 C69        33.4738   27.7114    7.0711 C.3       12 UNK        -0.0954 
     70 S70        31.8440   28.5424    7.0911 S.3       12 UNK        -0.2268 
     71 C71        31.3381   28.4763    5.3466 C.3       12 UNK         0.0203 
     72 H72        27.5756   21.7951    1.1498 H         1 UNK         0.0888 
     73 H73        29.2122   21.1330    1.1126 H         1 UNK         0.0888 
     74 H74        28.8079   22.4341    2.2341 H         1 UNK         0.0888 
     75 H75        29.6715   24.4013    1.5343 H         1 UNK         0.3017 
     76 H76        30.5435   24.9079   -1.1308 H         1 UNK         0.0873 
     77 H77        30.6737   27.3530   -0.1919 H         1 UNK         0.0745 
     78 H78        30.2271   26.6807    1.3455 H         1 UNK         0.0745 
     79 H79        33.5194   24.6883    2.3160 H         1 UNK         0.0705 
     80 H80        32.1196   23.8745    1.6710 H         1 UNK         0.0705 
     81 H81        32.6317   27.2547    3.2975 H         1 UNK         0.1334 
     82 H82        29.5981   26.5768    6.2391 H         1 UNK         0.1417 
     83 H83        30.5958   23.4814    3.4457 H         1 UNK         0.1562 
     84 H84        28.6642   24.3685    6.5269 H         1 UNK         0.0748 
     85 H85        29.3410   23.0204    5.6506 H         1 UNK         0.0748 
     86 H86        27.4385   26.2284    5.2129 H         1 UNK         0.0940 
     87 H87        25.8423   25.7156    4.7938 H         1 UNK         0.0940 
     88 H88        28.0804   26.0608    2.7246 H         1 UNK         0.0703 
     89 H89        26.6366   25.3790    1.1959 H         1 UNK         0.3081 
     90 H90        23.3108   24.6096    1.1207 H         1 UNK         0.0719 
     91 H91        22.7320   27.0118    0.7479 H         1 UNK         0.0809 
     92 H92        24.1180   27.1950   -0.3205 H         1 UNK         0.0809 
     93 H93        22.7830   26.1394   -0.7746 H         1 UNK         0.0809 
     94 H94        25.7781   25.1040   -0.5043 H         1 UNK         0.2990 
     95 H95        26.1481   22.1971   -1.5330 H         1 UNK         0.0690 
     96 H96        24.1048   23.1082   -3.6249 H         1 UNK         0.0788 
     97 H97        24.1947   21.5300   -2.8611 H         1 UNK         0.0788 
     98 H98        25.4727   22.0430   -3.9480 H         1 UNK         0.0788 
     99 H99        27.4845   23.7898   -2.1823 H         1 UNK         0.2993 
    100 H100       27.8145   25.9614   -4.2561 H         1 UNK         0.0949 
    101 H101       26.5829   27.8387   -2.1749 H         1 UNK         0.0767 
    102 H102       27.9189   28.2846   -3.2370 H         1 UNK         0.0767 
    103 H103       26.3474   27.8889   -3.9126 H         1 UNK         0.0767 
    104 H104       29.4416   25.5190   -2.8333 H         1 UNK         0.3013 
    105 H105       27.2365   27.7802    1.0224 H         1 UNK         0.3121 
    106 H106       25.7912   30.0332    1.9929 H         1 UNK         0.0774 
    107 H107       26.1123   30.8636   -0.3209 H         1 UNK         0.0815 
    108 H108       27.3312   29.6310   -0.6184 H         1 UNK         0.0815 
    109 H109       25.6505   29.1743   -0.3288 H         1 UNK         0.0815 
    110 H110       27.8569   29.9383    3.7387 H         1 UNK         0.2987 
    111 H111       29.3772   31.1657    4.8510 H         1 UNK         0.0949 
    112 H112       27.3920   32.6819    4.8319 H         1 UNK         0.0806 
    113 H113       28.8926   33.5850    4.9328 H         1 UNK         0.0806 
    114 H114       28.0264   33.5017    3.4053 H         1 UNK         0.0806 
    115 H115       30.5493   30.0673    2.5605 H         1 UNK         0.3010 
    116 H116       32.1766   31.9317    1.1167 H         1 UNK         0.0829 
    117 H117       31.5388   29.6790    0.2432 H         1 UNK         0.0813 
    118 H118       33.2835   29.8340    0.2903 H         1 UNK         0.0813 
    119 H119       32.4583   28.8995    1.5290 H         1 UNK         0.0813 
    120 H120       34.5386   31.9513    1.0970 H         1 UNK         0.3038 
    121 H121       35.7408   32.5423    3.5863 H         1 UNK         0.0769 
    122 H122       36.4434   33.5644    1.4319 H         1 UNK         0.0811 
    123 H123       37.8136   32.7902    2.2062 H         1 UNK         0.0811 
    124 H124       37.0215   32.0017    0.8497 H         1 UNK         0.0811 
    125 H125       35.2360   29.4740    2.2194 H         1 UNK         0.3204 
    126 H126       37.4716   28.0295    3.3225 H         1 UNK         0.0748 
    127 H127       36.2020   27.1609    1.3897 H         1 UNK         0.0771 
    128 H128       36.0613   26.0361    2.7289 H         1 UNK         0.0771 
    129 H129       34.7210   27.1031    2.3402 H         1 UNK         0.0771 
    130 H130       34.7552   29.4825    4.9074 H         1 UNK         0.2980 
    131 H131       35.5589   28.1149    7.3381 H         1 UNK         0.0545 
    132 H132       34.2644   29.2591    9.3238 H         1 UNK         0.3459 
    133 H133       34.4630   30.9899    9.2328 H         1 UNK         0.3459 
    134 H134       33.4511   26.8783    6.3673 H         1 UNK         0.0616 
    135 H135       33.5760   27.2403    8.0496 H         1 UNK         0.0616 
    136 H136       32.0797   29.0031    4.7502 H         1 UNK         0.0634 
    137 H137       30.4023   29.0231    5.2329 H         1 UNK         0.0634 
@<TRIPOS>BOND
     1    1    2 1    
     2    1   72 1    
     3    1   73 1    
     4    1   74 1    
     5    2    3 2    
     6    2    4 am   BACKBONE|DICT|INTERRES
     7    4    5 1    
     8    4   75 1    
     9    5    6 1    
    10    5   35 1    
    11    5   76 1    
    12    6    7 1    
    13    6   77 1    
    14    6   78 1    
    15    7    8 1    
    16    8    9 1    
    17    8   79 1    
    18    8   80 1    
    19    9   10 ar   
    20    9   14 ar   
    21   10   11 ar   
    22   10   81 1    
    23   11   12 ar   
    24   11   71 1    
    25   12   13 ar   
    26   12   82 1    
    27   13   14 ar   
    28   13   15 1    
    29   14   83 1    
    30   15   16 1    
    31   15   84 1    
    32   15   85 1    
    33   16   17 1    
    34   17   18 1    
    35   17   86 1    
    36   17   87 1    
    37   18   19 1    
    38   18   37 1    
    39   18   88 1    
    40   19   20 am   BACKBONE|DICT|INTERRES
    41   19   89 1    
    42   20   21 2    
    43   20   22 1    
    44   22   23 1    
    45   22   24 1    
    46   22   90 1    
    47   23   91 1    
    48   23   92 1    
    49   23   93 1    
    50   24   25 am   BACKBONE|DICT|INTERRES
    51   24   94 1    
    52   25   26 2    
    53   25   27 1    
    54   27   28 1    
    55   27   29 1    
    56   27   95 1    
    57   28   96 1    
    58   28   97 1    
    59   28   98 1    
    60   29   30 am   BACKBONE|DICT|INTERRES
    61   29   99 1    
    62   30   31 2    
    63   30   32 1    
    64   32   33 1    
    65   32   34 1    
    66   32  100 1    
    67   33  101 1    
    68   33  102 1    
    69   33  103 1    
    70   34   35 am   BACKBONE|DICT|INTERRES
    71   34  104 1    
    72   35   36 2    
    73   37   38 2    
    74   37   39 am   BACKBONE|DICT|INTERRES
    75   39   40 1    
    76   39  105 1    
    77   40   41 1    
    78   40   42 1    
    79   40  106 1    
    80   41  107 1    
    81   41  108 1    
    82   41  109 1    
    83   42   43 2    
    84   42   44 am   BACKBONE|DICT|INTERRES
    85   44   45 1    
    86   44  110 1    
    87   45   46 1    
    88   45   47 1    
    89   45  111 1    
    90   46  112 1    
    91   46  113 1    
    92   46  114 1    
    93   47   48 2    
    94   47   49 am   BACKBONE|DICT|INTERRES
    95   49   50 1    
    96   49  115 1    
    97   50   51 1    
    98   50   52 1    
    99   50  116 1    
   100   51  117 1    
   101   51  118 1    
   102   51  119 1    
   103   52   53 2    
   104   52   54 am   BACKBONE|DICT|INTERRES
   105   54   55 1    
   106   54  120 1    
   107   55   56 1    
   108   55   57 1    
   109   55  121 1    
   110   56  122 1    
   111   56  123 1    
   112   56  124 1    
   113   57   58 2    
   114   57   59 am   BACKBONE|DICT|INTERRES
   115   59   60 1    
   116   59  125 1    
   117   60   61 1    
   118   60   62 1    
   119   60  126 1    
   120   61  127 1    
   121   61  128 1    
   122   61  129 1    
   123   62   63 2    
   124   62   64 am   BACKBONE|DICT|INTERRES
   125   64   65 1    
   126   64  130 1    
   127   65   66 1    
   128   65   69 1    
   129   65  131 1    
   130   66   67 am   BACKBONE|DICT|INTERRES
   131   66   68 2    
   132   67  132 1    
   133   67  133 1    
   134   69   70 1    
   135   69  134 1    
   136   69  135 1    
   137   70   71 1    
   138   71  136 1    
   139   71  137 1    
@<TRIPOS>SUBSTRUCTURE
     1 UNK         1 GROUP             0       ****    0 ROOT    
