@<TRIPOS>MOLECULE
3R136
137   139    1
SMALL
USER_CHARGES


@<TRIPOS>ATOM
      1 CA         28.0058   20.0598    2.0378 C.3       0 UNK        -0.1979 
      2 C          28.3860   20.5560    0.6505 C.2       0 UNK         0.4864 
      3 O          28.0346   19.9195   -0.3435 O.2       0 UNK        -0.5359 
      4 N          29.1045   21.6849    0.5807 N.am      1 UNK        -0.4318 
      5 CA         29.5302   22.3504   -0.6562 C.3       1 UNK         0.0824 
      6 C6         30.6222   23.4224   -0.3946 C.3       12 UNK        -0.0944 
      7 S7         30.1658   24.7358    0.7968 S.3       12 UNK        -0.2672 
      8 C8         30.7087   24.0116    2.3797 C.3       12 UNK         0.0333 
      9 C9         30.8135   25.0613    3.4753 C.ar      12 UNK        -0.0807 
     10 C10        32.0546   25.3449    4.0513 C.ar      12 UNK        -0.0894 
     11 C11        32.1684   26.3121    5.0516 C.ar      12 UNK        -0.0804 
     12 C12        31.0290   27.0058    5.4692 C.ar      12 UNK        -0.0824 
     13 C13        29.7756   26.7283    4.9131 C.ar      12 UNK        -0.0762 
     14 C14        29.6742   25.7363    3.9281 C.ar      12 UNK        -0.0782 
     15 C15        28.5602   27.5075    5.4219 C.3       12 UNK         0.0230 
     16 S16        27.2099   27.7475    4.2129 S.3       12 UNK        -0.2608 
     17 C17        28.0567   28.6601    2.8796 C.3       12 UNK        -0.0989 
     18 CA         27.8712   27.9547    1.5108 C.3       5 UNK         0.0716 
     19 N          26.4827   27.9567    1.0303 N.am      5 UNK        -0.4135 
     20 C          25.7440   29.0306    0.7000 C.2       4 UNK         0.5031 
     21 O          26.1357   30.1927    0.8118 O.2       4 UNK        -0.5229 
     22 CA         24.3327   28.7981    0.1204 C.3       4 UNK         0.0329 
     23 CB         24.2564   29.3148   -1.3272 C.3       4 UNK        -0.2001 
     24 N          23.9118   27.3976    0.1321 N.am      4 UNK        -0.4303 
     25 C          23.4248   26.7366    1.1912 C.2       3 UNK         0.5044 
     26 O          23.1882   27.2601    2.2796 O.2       3 UNK        -0.5152 
     27 CA         23.1922   25.2229    1.0062 C.3       3 UNK         0.0319 
     28 CB         21.7167   24.9404    0.6806 C.3       3 UNK        -0.2001 
     29 N          24.0433   24.6212   -0.0313 N.am      3 UNK        -0.4354 
     30 C          25.3808   24.5736    0.0258 C.2       2 UNK         0.4964 
     31 O          26.0426   25.0064    0.9739 O.2       2 UNK        -0.5047 
     32 CA         26.1097   24.0446   -1.2112 C.3       2 UNK         0.0288 
     33 CB         26.2666   25.1794   -2.2440 C.3       2 UNK        -0.2113 
     34 N          27.4046   23.5521   -0.7553 N.am      2 UNK        -0.4145 
     35 C          28.3331   22.8988   -1.4621 C.2       1 UNK         0.5006 
     36 O          28.2593   22.6823   -2.6728 O.2       1 UNK        -0.5103 
     37 C          28.8202   28.4850    0.4173 C.2       5 UNK         0.5055 
     38 O          29.3614   29.5861    0.5312 O.2       5 UNK        -0.5220 
     39 N          28.9676   27.6852   -0.6490 N.am      6 UNK        -0.4450 
     40 CA         29.7428   28.0036   -1.8519 C.3       6 UNK         0.0367 
     41 CB         29.4801   26.9326   -2.9239 C.3       6 UNK        -0.1929 
     42 C          31.2559   28.1685   -1.6226 C.2       6 UNK         0.5070 
     43 O          31.8951   28.8835   -2.3950 O.2       6 UNK        -0.5237 
     44 N          31.8057   27.5086   -0.5925 N.am      7 UNK        -0.4739 
     45 CA         33.2134   27.6181   -0.1977 C.3       7 UNK         0.0276 
     46 CB         33.5398   26.5417    0.8508 C.3       7 UNK        -0.1927 
     47 C          33.5556   29.0257    0.3218 C.2       7 UNK         0.5013 
     48 O          34.4524   29.6748   -0.2180 O.2       7 UNK        -0.5193 
     49 N          32.8015   29.4667    1.3329 N.am      8 UNK        -0.4253 
     50 CA         32.8263   30.7716    1.9881 C.3       8 UNK         0.0242 
     51 CB         34.2013   31.0620    2.6257 C.3       8 UNK        -0.2000 
     52 C          31.7456   30.7340    3.0741 C.2       8 UNK         0.4948 
     53 O          31.4086   29.6469    3.5449 O.2       8 UNK        -0.5275 
     54 N          31.2460   31.9078    3.4871 N.am      9 UNK        -0.4246 
     55 CA         30.2713   32.0418    4.5809 C.3       9 UNK         0.0261 
     56 CB         29.7669   33.4923    4.6492 C.3       9 UNK        -0.1959 
     57 C          30.8313   31.5946    5.9456 C.2       9 UNK         0.5033 
     58 O          30.0914   31.0391    6.7587 O.2       9 UNK        -0.5390 
     59 N          32.1338   31.8165    6.1457 N.am      10 UNK        -0.4215 
     60 CA         32.9509   31.2572    7.2119 C.3       10 UNK         0.0240 
     61 CB         33.0288   32.2340    8.3974 C.3       10 UNK        -0.1982 
     62 C          34.3261   31.0058    6.5890 C.2       10 UNK         0.4970 
     63 O          34.8584   31.9072    5.9366 O.2       10 UNK        -0.4916 
     64 N          34.8548   29.7922    6.7661 N.am      11 UNK        -0.4279 
     65 CA         36.1057   29.3352    6.1352 C.3       11 UNK         0.1003 
     66 C          37.3837   29.6256    6.9746 C.2       11 UNK         0.5709 
     67 N          37.2816   30.1861    8.1742 N.am      11 UNK        -0.7358 
     68 O          38.4929   29.3500    6.5231 O.2       11 UNK        -0.4999 
     69 C69        36.0216   27.8432    5.7145 C.3       12 UNK        -0.0954 
     70 S70        34.6232   27.5104    4.5875 S.3       12 UNK        -0.2268 
     71 C71        33.5176   26.5874    5.6967 C.3       12 UNK         0.0203 
     72 H72        28.3826   20.7139    2.8240 H         1 UNK         0.0888 
     73 H73        28.4119   19.0623    2.2036 H         1 UNK         0.0888 
     74 H74        26.9216   20.0065    2.1325 H         1 UNK         0.0888 
     75 H75        29.3633   22.1566    1.4334 H         1 UNK         0.3017 
     76 H76        29.9875   21.5809   -1.2826 H         1 UNK         0.0873 
     77 H77        31.5332   22.9341   -0.0456 H         1 UNK         0.0745 
     78 H78        30.9043   23.9046   -1.3325 H         1 UNK         0.0745 
     79 H79        30.0041   23.2440    2.6983 H         1 UNK         0.0705 
     80 H80        31.6700   23.5148    2.2388 H         1 UNK         0.0705 
     81 H81        32.9390   24.8171    3.7210 H         1 UNK         0.1334 
     82 H82        31.1175   27.7667    6.2328 H         1 UNK         0.1417 
     83 H83        28.7123   25.4944    3.4981 H         1 UNK         0.1562 
     84 H84        28.8732   28.4937    5.7704 H         1 UNK         0.0748 
     85 H85        28.1570   26.9872    6.2914 H         1 UNK         0.0748 
     86 H86        29.1161   28.7274    3.1221 H         1 UNK         0.0940 
     87 H87        27.6931   29.6881    2.8567 H         1 UNK         0.0940 
     88 H88        28.1363   26.9059    1.6490 H         1 UNK         0.0703 
     89 H89        26.0673   27.0361    0.9432 H         1 UNK         0.3081 
     90 H90        23.6343   29.3782    0.7275 H         1 UNK         0.0719 
     91 H91        24.9463   28.7827   -1.9836 H         1 UNK         0.0809 
     92 H92        23.2513   29.2067   -1.7356 H         1 UNK         0.0809 
     93 H93        24.5104   30.3745   -1.3796 H         1 UNK         0.0809 
     94 H94        24.0464   26.8803   -0.7238 H         1 UNK         0.2990 
     95 H95        23.4325   24.7396    1.9557 H         1 UNK         0.0690 
     96 H96        21.5186   23.8695    0.6314 H         1 UNK         0.0788 
     97 H97        21.4203   25.3824   -0.2715 H         1 UNK         0.0788 
     98 H98        21.0618   25.3535    1.4493 H         1 UNK         0.0788 
     99 H99        23.5728   24.2556   -0.8476 H         1 UNK         0.2993 
    100 H100       25.5492   23.2122   -1.6414 H         1 UNK         0.0949 
    101 H101       26.7677   26.0464   -1.8144 H         1 UNK         0.0767 
    102 H102       26.8343   24.8618   -3.1182 H         1 UNK         0.0767 
    103 H103       25.2941   25.5146   -2.6063 H         1 UNK         0.0767 
    104 H104       27.5617   23.7006    0.2347 H         1 UNK         0.3013 
    105 H105       28.5069   26.7873   -0.6393 H         1 UNK         0.3121 
    106 H106       29.3763   28.9596   -2.2318 H         1 UNK         0.0774 
    107 H107       29.7034   25.9290   -2.5597 H         1 UNK         0.0815 
    108 H108       28.4431   26.9516   -3.2571 H         1 UNK         0.0815 
    109 H109       30.0968   27.1022   -3.8079 H         1 UNK         0.0815 
    110 H110       31.2117   26.9199   -0.0245 H         1 UNK         0.2987 
    111 H111       33.8285   27.4303   -1.0806 H         1 UNK         0.0949 
    112 H112       33.3707   25.5388    0.4582 H         1 UNK         0.0806 
    113 H113       34.5847   26.5995    1.1586 H         1 UNK         0.0806 
    114 H114       32.9313   26.6560    1.7477 H         1 UNK         0.0806 
    115 H115       32.0960   28.8527    1.7239 H         1 UNK         0.3010 
    116 H116       32.5772   31.5383    1.2524 H         1 UNK         0.0829 
    117 H117       34.1921   32.0083    3.1674 H         1 UNK         0.0813 
    118 H118       34.9912   31.1361    1.8793 H         1 UNK         0.0813 
    119 H119       34.4845   30.2846    3.3359 H         1 UNK         0.0813 
    120 H120       31.5624   32.7607    3.0477 H         1 UNK         0.3038 
    121 H121       29.4221   31.3947    4.3495 H         1 UNK         0.0769 
    122 H122       29.2892   33.7909    3.7159 H         1 UNK         0.0811 
    123 H123       30.5761   34.1943    4.8541 H         1 UNK         0.0811 
    124 H124       29.0261   33.6091    5.4417 H         1 UNK         0.0811 
    125 H125       32.6675   32.2647    5.4120 H         1 UNK         0.3204 
    126 H126       32.5230   30.3090    7.5455 H         1 UNK         0.0748 
    127 H127       33.6471   31.8272    9.1984 H         1 UNK         0.0771 
    128 H128       33.4596   33.1924    8.1039 H         1 UNK         0.0771 
    129 H129       32.0404   32.4265    8.8152 H         1 UNK         0.0771 
    130 H130       34.3702   29.1135    7.3333 H         1 UNK         0.2980 
    131 H131       36.2463   29.9034    5.2136 H         1 UNK         0.0545 
    132 H132       36.3797   30.4274    8.5515 H         1 UNK         0.3459 
    133 H133       38.1184   30.3740    8.7037 H         1 UNK         0.3459 
    134 H134       35.9527   27.1993    6.5930 H         1 UNK         0.0616 
    135 H135       36.9320   27.5437    5.1921 H         1 UNK         0.0616 
    136 H136       33.9901   25.6427    5.9698 H         1 UNK         0.0634 
    137 H137       33.3864   27.1475    6.6233 H         1 UNK         0.0634 
@<TRIPOS>BOND
     1    1    2 1    
     2    1   72 1    
     3    1   73 1    
     4    1   74 1    
     5    2    3 2    
     6    2    4 am   BACKBONE|DICT|INTERRES
     7    4    5 1    
     8    4   75 1    
     9    5    6 1    
    10    5   35 1    
    11    5   76 1    
    12    6    7 1    
    13    6   77 1    
    14    6   78 1    
    15    7    8 1    
    16    8    9 1    
    17    8   79 1    
    18    8   80 1    
    19    9   10 ar   
    20    9   14 ar   
    21   10   11 ar   
    22   10   81 1    
    23   11   12 ar   
    24   11   71 1    
    25   12   13 ar   
    26   12   82 1    
    27   13   14 ar   
    28   13   15 1    
    29   14   83 1    
    30   15   16 1    
    31   15   84 1    
    32   15   85 1    
    33   16   17 1    
    34   17   18 1    
    35   17   86 1    
    36   17   87 1    
    37   18   19 1    
    38   18   37 1    
    39   18   88 1    
    40   19   20 am   BACKBONE|DICT|INTERRES
    41   19   89 1    
    42   20   21 2    
    43   20   22 1    
    44   22   23 1    
    45   22   24 1    
    46   22   90 1    
    47   23   91 1    
    48   23   92 1    
    49   23   93 1    
    50   24   25 am   BACKBONE|DICT|INTERRES
    51   24   94 1    
    52   25   26 2    
    53   25   27 1    
    54   27   28 1    
    55   27   29 1    
    56   27   95 1    
    57   28   96 1    
    58   28   97 1    
    59   28   98 1    
    60   29   30 am   BACKBONE|DICT|INTERRES
    61   29   99 1    
    62   30   31 2    
    63   30   32 1    
    64   32   33 1    
    65   32   34 1    
    66   32  100 1    
    67   33  101 1    
    68   33  102 1    
    69   33  103 1    
    70   34   35 am   BACKBONE|DICT|INTERRES
    71   34  104 1    
    72   35   36 2    
    73   37   38 2    
    74   37   39 am   BACKBONE|DICT|INTERRES
    75   39   40 1    
    76   39  105 1    
    77   40   41 1    
    78   40   42 1    
    79   40  106 1    
    80   41  107 1    
    81   41  108 1    
    82   41  109 1    
    83   42   43 2    
    84   42   44 am   BACKBONE|DICT|INTERRES
    85   44   45 1    
    86   44  110 1    
    87   45   46 1    
    88   45   47 1    
    89   45  111 1    
    90   46  112 1    
    91   46  113 1    
    92   46  114 1    
    93   47   48 2    
    94   47   49 am   BACKBONE|DICT|INTERRES
    95   49   50 1    
    96   49  115 1    
    97   50   51 1    
    98   50   52 1    
    99   50  116 1    
   100   51  117 1    
   101   51  118 1    
   102   51  119 1    
   103   52   53 2    
   104   52   54 am   BACKBONE|DICT|INTERRES
   105   54   55 1    
   106   54  120 1    
   107   55   56 1    
   108   55   57 1    
   109   55  121 1    
   110   56  122 1    
   111   56  123 1    
   112   56  124 1    
   113   57   58 2    
   114   57   59 am   BACKBONE|DICT|INTERRES
   115   59   60 1    
   116   59  125 1    
   117   60   61 1    
   118   60   62 1    
   119   60  126 1    
   120   61  127 1    
   121   61  128 1    
   122   61  129 1    
   123   62   63 2    
   124   62   64 am   BACKBONE|DICT|INTERRES
   125   64   65 1    
   126   64  130 1    
   127   65   66 1    
   128   65   69 1    
   129   65  131 1    
   130   66   67 am   BACKBONE|DICT|INTERRES
   131   66   68 2    
   132   67  132 1    
   133   67  133 1    
   134   69   70 1    
   135   69  134 1    
   136   69  135 1    
   137   70   71 1    
   138   71  136 1    
   139   71  137 1    
@<TRIPOS>SUBSTRUCTURE
     1 UNK         1 GROUP             0       ****    0 ROOT    
