@<TRIPOS>MOLECULE
3R136
137   139    1
SMALL
USER_CHARGES


@<TRIPOS>ATOM
      1 CA         25.1091   21.7113   -0.6687 C.3       0 UNK        -0.1979 
      2 C          26.2477   22.1952   -1.5543 C.2       0 UNK         0.4864 
      3 O          26.0216   22.4967   -2.7266 O.2       0 UNK        -0.5359 
      4 N          27.4677   22.2600   -1.0057 N.am      1 UNK        -0.4318 
      5 CA         28.6814   22.6921   -1.7043 C.3       1 UNK         0.0824 
      6 C6         29.9470   22.2683   -0.9161 C.3       12 UNK        -0.0944 
      7 S7         31.5153   22.6371   -1.7796 S.3       12 UNK        -0.2672 
      8 C8         32.7537   22.2941   -0.4883 C.3       12 UNK         0.0333 
      9 C9         32.5381   23.1287    0.7674 C.ar      12 UNK        -0.0807 
     10 C10        32.8306   24.4969    0.7730 C.ar      12 UNK        -0.0894 
     11 C11        32.6312   25.2642    1.9268 C.ar      12 UNK        -0.0804 
     12 C12        32.1381   24.6431    3.0787 C.ar      12 UNK        -0.0824 
     13 C13        31.8366   23.2796    3.0846 C.ar      12 UNK        -0.0762 
     14 C14        32.0411   22.5265    1.9267 C.ar      12 UNK        -0.0782 
     15 C15        31.2940   22.6168    4.3409 C.3       12 UNK         0.0230 
     16 S16        29.4842   22.7744    4.4513 S.3       12 UNK        -0.2608 
     17 C17        29.2882   24.4910    5.0437 C.3       12 UNK        -0.0989 
     18 CA         28.6970   25.4772    3.9920 C.3       5 UNK         0.0716 
     19 N          27.3302   25.1117    3.6241 N.am      5 UNK        -0.4135 
     20 C          26.9715   24.4168    2.5404 C.2       4 UNK         0.5031 
     21 O          27.7512   24.0283    1.6670 O.2       4 UNK        -0.5229 
     22 CA         25.4713   24.1384    2.3477 C.3       4 UNK         0.0329 
     23 CB         24.6359   24.1130    3.6493 C.3       4 UNK        -0.2001 
     24 N          24.9554   25.0746    1.3470 N.am      4 UNK        -0.4303 
     25 C          24.8340   26.4027    1.4866 C.2       3 UNK         0.5044 
     26 O          24.8028   26.9950    2.5661 O.2       3 UNK        -0.5152 
     27 CA         24.8928   27.1930    0.1665 C.3       3 UNK         0.0319 
     28 CB         24.7163   28.7119    0.3732 C.3       3 UNK        -0.2001 
     29 N          26.1413   26.8958   -0.5606 N.am      3 UNK        -0.4354 
     30 C          27.3938   27.0168   -0.0869 C.2       2 UNK         0.4964 
     31 O          27.6750   27.4868    1.0163 O.2       2 UNK        -0.5047 
     32 CA         28.5146   26.4582   -0.9653 C.3       2 UNK         0.0288 
     33 CB         29.9219   26.8553   -0.4716 C.3       2 UNK        -0.2113 
     34 N          28.4161   25.0042   -0.9440 N.am      2 UNK        -0.4145 
     35 C          28.6573   24.2079   -1.9908 C.2       1 UNK         0.5006 
     36 O          28.8631   24.6193   -3.1348 O.2       1 UNK        -0.5103 
     37 C          28.6732   26.9267    4.5235 C.2       5 UNK         0.5055 
     38 O          29.0073   27.1381    5.6909 O.2       5 UNK        -0.5220 
     39 N          28.2270   27.8967    3.7093 N.am      6 UNK        -0.4450 
     40 CA         27.9791   29.2703    4.1722 C.3       6 UNK         0.0367 
     41 CB         26.5450   29.3664    4.7265 C.3       6 UNK        -0.1929 
     42 C          28.2247   30.3848    3.1401 C.2       6 UNK         0.5070 
     43 O          28.3463   31.5370    3.5579 O.2       6 UNK        -0.5237 
     44 N          28.2624   30.0808    1.8334 N.am      7 UNK        -0.4739 
     45 CA         28.3722   31.0997    0.7762 C.3       7 UNK         0.0276 
     46 CB         28.0091   30.5007   -0.5919 C.3       7 UNK        -0.1927 
     47 C          29.7488   31.7803    0.7014 C.2       7 UNK         0.5013 
     48 O          29.8190   32.9536    0.3314 O.2       7 UNK        -0.5193 
     49 N          30.8117   31.0405    1.0397 N.am      8 UNK        -0.4253 
     50 CA         32.1749   31.5611    1.1214 C.3       8 UNK         0.0242 
     51 CB         33.1725   30.4203    0.8691 C.3       8 UNK        -0.2000 
     52 C          32.4022   32.1735    2.5078 C.2       8 UNK         0.4948 
     53 O          32.0234   31.5571    3.5061 O.2       8 UNK        -0.5275 
     54 N          33.0640   33.3374    2.5566 N.am      9 UNK        -0.4246 
     55 CA         33.3570   34.0834    3.7887 C.3       9 UNK         0.0261 
     56 CB         33.9934   35.4352    3.4265 C.3       9 UNK        -0.1959 
     57 C          34.2416   33.3247    4.7962 C.2       9 UNK         0.5033 
     58 O          34.1251   33.5615    5.9992 O.2       9 UNK        -0.5390 
     59 N          35.0915   32.4190    4.2932 N.am      10 UNK        -0.4215 
     60 CA         35.9086   31.5079    5.0968 C.3       10 UNK         0.0240 
     61 CB         37.0439   30.9503    4.2222 C.3       10 UNK        -0.1982 
     62 C          35.0999   30.3537    5.7196 C.2       10 UNK         0.4970 
     63 O          35.5417   29.7978    6.7261 O.2       10 UNK        -0.4916 
     64 N          33.9589   30.0030    5.1128 N.am      11 UNK        -0.4279 
     65 CA         33.0674   28.9237    5.5571 C.3       11 UNK         0.1003 
     66 C          31.9196   29.4673    6.4461 C.2       11 UNK         0.5709 
     67 N          31.2871   30.5745    6.0763 N.am      11 UNK        -0.7358 
     68 O          31.6199   28.8951    7.4909 O.2       11 UNK        -0.4999 
     69 C69        32.5094   28.1100    4.3608 C.3       12 UNK        -0.0954 
     70 S70        33.8406   27.3509    3.3644 S.3       12 UNK        -0.2268 
     71 C71        32.9200   26.7628    1.9031 C.3       12 UNK         0.0203 
     72 H72        25.4689   21.3417    0.2912 H         1 UNK         0.0888 
     73 H73        24.4005   22.5182   -0.4858 H         1 UNK         0.0888 
     74 H74        24.5755   20.8975   -1.1592 H         1 UNK         0.0888 
     75 H75        27.5848   22.0375   -0.0265 H         1 UNK         0.3017 
     76 H76        28.7046   22.1804   -2.6693 H         1 UNK         0.0873 
     77 H77        29.9487   22.7545    0.0609 H         1 UNK         0.0745 
     78 H78        29.9211   21.1951   -0.7206 H         1 UNK         0.0745 
     79 H79        32.7340   21.2286   -0.2537 H         1 UNK         0.0705 
     80 H80        33.7472   22.4984   -0.8899 H         1 UNK         0.0705 
     81 H81        33.2029   24.9633   -0.1289 H         1 UNK         0.1334 
     82 H82        31.9855   25.2212    3.9759 H         1 UNK         0.1417 
     83 H83        31.8048   21.4709    1.9267 H         1 UNK         0.1562 
     84 H84        31.7650   23.0370    5.2309 H         1 UNK         0.0748 
     85 H85        31.5499   21.5562    4.3406 H         1 UNK         0.0748 
     86 H86        30.2497   24.8503    5.4121 H         1 UNK         0.0940 
     87 H87        28.6425   24.4556    5.9234 H         1 UNK         0.0940 
     88 H88        29.3343   25.4775    3.1050 H         1 UNK         0.0703 
     89 H89        26.6034   25.4599    4.2332 H         1 UNK         0.3081 
     90 H90        25.4003   23.1436    1.9085 H         1 UNK         0.0719 
     91 H91        24.6357   25.0618    4.1846 H         1 UNK         0.0809 
     92 H92        23.5975   23.8584    3.4378 H         1 UNK         0.0809 
     93 H93        25.0172   23.3556    4.3356 H         1 UNK         0.0809 
     94 H94        24.9729   24.7258    0.4000 H         1 UNK         0.2990 
     95 H95        24.0663   26.8424   -0.4536 H         1 UNK         0.0690 
     96 H96        24.7343   29.2460   -0.5764 H         1 UNK         0.0788 
     97 H97        25.4927   29.1298    1.0148 H         1 UNK         0.0788 
     98 H98        23.7583   28.9288    0.8471 H         1 UNK         0.0788 
     99 H99        26.0238   26.4817   -1.4754 H         1 UNK         0.2993 
    100 H100       28.3697   26.8478   -1.9753 H         1 UNK         0.0949 
    101 H101       30.6956   26.4751   -1.1389 H         1 UNK         0.0767 
    102 H102       30.0431   27.9364   -0.4184 H         1 UNK         0.0767 
    103 H103       30.1193   26.4530    0.5228 H         1 UNK         0.0767 
    104 H104       28.2209   24.5867   -0.0340 H         1 UNK         0.3013 
    105 H105       27.9565   27.6682    2.7520 H         1 UNK         0.3121 
    106 H106       28.6691   29.4972    4.9882 H         1 UNK         0.0774 
    107 H107       25.8057   29.1321    3.9598 H         1 UNK         0.0815 
    108 H108       26.3293   30.3709    5.0931 H         1 UNK         0.0815 
    109 H109       26.3925   28.6810    5.5601 H         1 UNK         0.0815 
    110 H110       28.1108   29.1195    1.5346 H         1 UNK         0.2987 
    111 H111       27.6420   31.8821    0.9959 H         1 UNK         0.0949 
    112 H112       27.0059   30.0807   -0.5931 H         1 UNK         0.0806 
    113 H113       28.7050   29.7199   -0.8929 H         1 UNK         0.0806 
    114 H114       28.0328   31.2671   -1.3679 H         1 UNK         0.0806 
    115 H115       30.6505   30.1122    1.4001 H         1 UNK         0.3010 
    116 H116       32.3217   32.3246    0.3541 H         1 UNK         0.0829 
    117 H117       34.1986   30.7899    0.8675 H         1 UNK         0.0813 
    118 H118       32.9980   29.9446   -0.0962 H         1 UNK         0.0813 
    119 H119       33.1060   29.6524    1.6381 H         1 UNK         0.0813 
    120 H120       33.3505   33.7705    1.6898 H         1 UNK         0.3038 
    121 H121       32.4034   34.2776    4.2846 H         1 UNK         0.0769 
    122 H122       34.1982   36.0227    4.3228 H         1 UNK         0.0811 
    123 H123       33.3317   36.0307    2.7972 H         1 UNK         0.0811 
    124 H124       34.9388   35.3089    2.8974 H         1 UNK         0.0811 
    125 H125       35.1354   32.3116    3.2905 H         1 UNK         0.3204 
    126 H126       36.3555   32.0760    5.9157 H         1 UNK         0.0748 
    127 H127       37.6944   30.2926    4.8005 H         1 UNK         0.0771 
    128 H128       36.6596   30.3702    3.3819 H         1 UNK         0.0771 
    129 H129       37.6680   31.7501    3.8229 H         1 UNK         0.0771 
    130 H130       33.6081   30.5639    4.3473 H         1 UNK         0.2980 
    131 H131       33.6364   28.2248    6.1737 H         1 UNK         0.0545 
    132 H132       30.5519   30.9436    6.6561 H         1 UNK         0.3459 
    133 H133       31.5157   31.0242    5.1925 H         1 UNK         0.3459 
    134 H134       31.9045   28.7502    3.7161 H         1 UNK         0.0616 
    135 H135       31.8471   27.3218    4.7195 H         1 UNK         0.0616 
    136 H136       31.9800   27.3068    1.8099 H         1 UNK         0.0634 
    137 H137       33.5073   27.0167    1.0194 H         1 UNK         0.0634 
@<TRIPOS>BOND
     1    1    2 1    
     2    1   72 1    
     3    1   73 1    
     4    1   74 1    
     5    2    3 2    
     6    2    4 am   BACKBONE|DICT|INTERRES
     7    4    5 1    
     8    4   75 1    
     9    5    6 1    
    10    5   35 1    
    11    5   76 1    
    12    6    7 1    
    13    6   77 1    
    14    6   78 1    
    15    7    8 1    
    16    8    9 1    
    17    8   79 1    
    18    8   80 1    
    19    9   10 ar   
    20    9   14 ar   
    21   10   11 ar   
    22   10   81 1    
    23   11   12 ar   
    24   11   71 1    
    25   12   13 ar   
    26   12   82 1    
    27   13   14 ar   
    28   13   15 1    
    29   14   83 1    
    30   15   16 1    
    31   15   84 1    
    32   15   85 1    
    33   16   17 1    
    34   17   18 1    
    35   17   86 1    
    36   17   87 1    
    37   18   19 1    
    38   18   37 1    
    39   18   88 1    
    40   19   20 am   BACKBONE|DICT|INTERRES
    41   19   89 1    
    42   20   21 2    
    43   20   22 1    
    44   22   23 1    
    45   22   24 1    
    46   22   90 1    
    47   23   91 1    
    48   23   92 1    
    49   23   93 1    
    50   24   25 am   BACKBONE|DICT|INTERRES
    51   24   94 1    
    52   25   26 2    
    53   25   27 1    
    54   27   28 1    
    55   27   29 1    
    56   27   95 1    
    57   28   96 1    
    58   28   97 1    
    59   28   98 1    
    60   29   30 am   BACKBONE|DICT|INTERRES
    61   29   99 1    
    62   30   31 2    
    63   30   32 1    
    64   32   33 1    
    65   32   34 1    
    66   32  100 1    
    67   33  101 1    
    68   33  102 1    
    69   33  103 1    
    70   34   35 am   BACKBONE|DICT|INTERRES
    71   34  104 1    
    72   35   36 2    
    73   37   38 2    
    74   37   39 am   BACKBONE|DICT|INTERRES
    75   39   40 1    
    76   39  105 1    
    77   40   41 1    
    78   40   42 1    
    79   40  106 1    
    80   41  107 1    
    81   41  108 1    
    82   41  109 1    
    83   42   43 2    
    84   42   44 am   BACKBONE|DICT|INTERRES
    85   44   45 1    
    86   44  110 1    
    87   45   46 1    
    88   45   47 1    
    89   45  111 1    
    90   46  112 1    
    91   46  113 1    
    92   46  114 1    
    93   47   48 2    
    94   47   49 am   BACKBONE|DICT|INTERRES
    95   49   50 1    
    96   49  115 1    
    97   50   51 1    
    98   50   52 1    
    99   50  116 1    
   100   51  117 1    
   101   51  118 1    
   102   51  119 1    
   103   52   53 2    
   104   52   54 am   BACKBONE|DICT|INTERRES
   105   54   55 1    
   106   54  120 1    
   107   55   56 1    
   108   55   57 1    
   109   55  121 1    
   110   56  122 1    
   111   56  123 1    
   112   56  124 1    
   113   57   58 2    
   114   57   59 am   BACKBONE|DICT|INTERRES
   115   59   60 1    
   116   59  125 1    
   117   60   61 1    
   118   60   62 1    
   119   60  126 1    
   120   61  127 1    
   121   61  128 1    
   122   61  129 1    
   123   62   63 2    
   124   62   64 am   BACKBONE|DICT|INTERRES
   125   64   65 1    
   126   64  130 1    
   127   65   66 1    
   128   65   69 1    
   129   65  131 1    
   130   66   67 am   BACKBONE|DICT|INTERRES
   131   66   68 2    
   132   67  132 1    
   133   67  133 1    
   134   69   70 1    
   135   69  134 1    
   136   69  135 1    
   137   70   71 1    
   138   71  136 1    
   139   71  137 1    
@<TRIPOS>SUBSTRUCTURE
     1 UNK         1 GROUP             0       ****    0 ROOT    
