@<TRIPOS>MOLECULE
3R136
137   139    1
SMALL
USER_CHARGES


@<TRIPOS>ATOM
      1 CA         29.8168   17.5277    0.0595 C.3       0 UNK        -0.1979 
      2 C          29.4806   18.9111   -0.4775 C.2       0 UNK         0.4864 
      3 O          29.1316   19.0419   -1.6513 O.2       0 UNK        -0.5359 
      4 N          29.5896   19.9412    0.3722 N.am      1 UNK        -0.4318 
      5 CA         29.2693   21.3395    0.0605 C.3       1 UNK         0.0824 
      6 C6         29.8150   22.3165    1.1368 C.3       12 UNK        -0.0944 
      7 S7         29.3624   21.8545    2.8487 S.3       12 UNK        -0.2672 
      8 C8         28.1868   23.1805    3.2891 C.3       12 UNK         0.0333 
      9 C9         28.8000   24.4880    3.7961 C.ar      12 UNK        -0.0807 
     10 C10        30.1741   24.6598    4.0180 C.ar      12 UNK        -0.0894 
     11 C11        30.6736   25.8710    4.5057 C.ar      12 UNK        -0.0804 
     12 C12        29.7940   26.9226    4.7738 C.ar      12 UNK        -0.0824 
     13 C13        28.4219   26.7666    4.5615 C.ar      12 UNK        -0.0762 
     14 C14        27.9339   25.5502    4.0748 C.ar      12 UNK        -0.0782 
     15 C15        27.4677   27.9119    4.8642 C.3       12 UNK         0.0230 
     16 S16        27.5714   29.2237    3.6085 S.3       12 UNK        -0.2608 
     17 C17        26.9178   28.3804    2.1236 C.3       12 UNK        -0.0989 
     18 CA         28.0144   27.8026    1.1912 C.3       5 UNK         0.0716 
     19 N          27.4156   27.0685    0.0792 N.am      5 UNK        -0.4135 
     20 C          28.0699   26.2335   -0.7347 C.2       4 UNK         0.5031 
     21 O          29.2403   25.8870   -0.5641 O.2       4 UNK        -0.5229 
     22 CA         27.2671   25.6997   -1.9349 C.3       4 UNK         0.0329 
     23 CB         28.1441   24.9331   -2.9431 C.3       4 UNK        -0.2001 
     24 N          26.1515   24.8503   -1.5056 N.am      4 UNK        -0.4303 
     25 C          24.9703   25.3101   -1.0636 C.2       3 UNK         0.5044 
     26 O          24.7267   26.5112   -0.9308 O.2       3 UNK        -0.5152 
     27 CA         23.8644   24.2926   -0.7241 C.3       3 UNK         0.0319 
     28 CB         22.7959   24.2800   -1.8298 C.3       3 UNK        -0.2001 
     29 N          24.3557   22.9282   -0.5278 N.am      3 UNK        -0.4354 
     30 C          24.9338   22.4784    0.5931 C.2       2 UNK         0.4964 
     31 O          25.0884   23.1636    1.6044 O.2       2 UNK        -0.5047 
     32 CA         25.4416   21.0215    0.5894 C.3       2 UNK         0.0288 
     33 CB         24.9045   20.1656   -0.5814 C.3       2 UNK        -0.2113 
     34 N          26.9070   20.9568    0.6331 N.am      2 UNK        -0.4145 
     35 C          27.7651   21.5535   -0.2104 C.2       1 UNK         0.5006 
     36 O          27.4150   22.2294   -1.1789 O.2       1 UNK        -0.5103 
     37 C          28.9464   28.9025    0.6467 C.2       5 UNK         0.5055 
     38 O          28.5233   29.6956   -0.1992 O.2       5 UNK        -0.5220 
     39 N          30.1743   28.9615    1.1750 N.am      6 UNK        -0.4450 
     40 CA         31.1143   30.0585    0.9580 C.3       6 UNK         0.0367 
     41 CB         32.5513   29.5161    1.0339 C.3       6 UNK        -0.1929 
     42 C          30.8365   31.1472    2.0056 C.2       6 UNK         0.5070 
     43 O          31.5543   31.2421    3.0039 O.2       6 UNK        -0.5237 
     44 N          29.7557   31.9070    1.7845 N.am      7 UNK        -0.4739 
     45 CA         29.2603   32.9643    2.6701 C.3       7 UNK         0.0276 
     46 CB         27.9855   33.5711    2.0638 C.3       7 UNK        -0.1927 
     47 C          30.3100   34.0578    2.9316 C.2       7 UNK         0.5013 
     48 O          31.0752   34.3989    2.0259 O.2       7 UNK        -0.5193 
     49 N          30.3449   34.5582    4.1745 N.am      8 UNK        -0.4253 
     50 CA         31.3034   35.5150    4.7536 C.3       8 UNK         0.0242 
     51 CB         31.3027   36.8604    4.0008 C.3       8 UNK        -0.2000 
     52 C          32.7346   34.9636    4.9131 C.2       8 UNK         0.4948 
     53 O          33.3617   35.2239    5.9404 O.2       8 UNK        -0.5275 
     54 N          33.2195   34.2021    3.9239 N.am      9 UNK        -0.4246 
     55 CA         34.5060   33.5027    3.9445 C.3       9 UNK         0.0261 
     56 CB         34.8433   33.0216    2.5239 C.3       9 UNK        -0.1959 
     57 C          34.5348   32.3206    4.9289 C.2       9 UNK         0.5033 
     58 O          35.6013   32.0136    5.4639 O.2       9 UNK        -0.5390 
     59 N          33.3804   31.6616    5.1221 N.am      10 UNK        -0.4215 
     60 CA         33.1485   30.4982    5.9902 C.3       10 UNK         0.0240 
     61 CB         33.2674   30.8965    7.4764 C.3       10 UNK        -0.1982 
     62 C          34.0279   29.2873    5.6192 C.2       10 UNK         0.4970 
     63 O          34.4439   28.5329    6.4999 O.2       10 UNK        -0.4916 
     64 N          34.3031   29.1476    4.3157 N.am      11 UNK        -0.4279 
     65 CA         35.2163   28.1658    3.7066 C.3       11 UNK         0.1003 
     66 C          36.7192   28.3627    4.0797 C.2       11 UNK         0.5709 
     67 N          37.1269   29.4912    4.6517 N.am      11 UNK        -0.7358 
     68 O          37.5445   27.4921    3.8127 O.2       11 UNK        -0.4999 
     69 C69        34.7412   26.6916    3.8701 C.3       12 UNK        -0.0954 
     70 S70        33.0566   26.4105    3.2253 S.3       12 UNK        -0.2268 
     71 C71        32.1628   26.0338    4.7611 C.3       12 UNK         0.0203 
     72 H72        30.1155   17.5582    1.1073 H         1 UNK         0.0888 
     73 H73        28.9513   16.8714   -0.0272 H         1 UNK         0.0888 
     74 H74        30.6347   17.0914   -0.5134 H         1 UNK         0.0888 
     75 H75        29.8871   19.7738    1.3236 H         1 UNK         0.3017 
     76 H76        29.7802   21.5791   -0.8749 H         1 UNK         0.0873 
     77 H77        29.5070   23.3433    0.9265 H         1 UNK         0.0745 
     78 H78        30.9047   22.3300    1.0854 H         1 UNK         0.0745 
     79 H79        27.5212   22.7930    4.0617 H         1 UNK         0.0705 
     80 H80        27.5598   23.3952    2.4238 H         1 UNK         0.0705 
     81 H81        30.8709   23.8582    3.8206 H         1 UNK         0.1334 
     82 H82        30.1741   27.8630    5.1494 H         1 UNK         0.1417 
     83 H83        26.8712   25.4266    3.9122 H         1 UNK         0.1562 
     84 H84        27.7126   28.3373    5.8385 H         1 UNK         0.0748 
     85 H85        26.4382   27.5575    4.9377 H         1 UNK         0.0748 
     86 H86        26.2969   29.0952    1.5795 H         1 UNK         0.0940 
     87 H87        26.2404   27.5852    2.4388 H         1 UNK         0.0940 
     88 H88        28.6147   27.0915    1.7616 H         1 UNK         0.0703 
     89 H89        26.4483   27.2767   -0.1442 H         1 UNK         0.3081 
     90 H90        26.8622   26.5667   -2.4617 H         1 UNK         0.0719 
     91 H91        28.6464   24.0812   -2.4850 H         1 UNK         0.0809 
     92 H92        27.5559   24.5642   -3.7834 H         1 UNK         0.0809 
     93 H93        28.9206   25.5815   -3.3507 H         1 UNK         0.0809 
     94 H94        26.3283   23.8496   -1.5064 H         1 UNK         0.2990 
     95 H95        23.3889   24.6282    0.2002 H         1 UNK         0.0690 
     96 H96        21.9670   23.6199   -1.5735 H         1 UNK         0.0788 
     97 H97        23.2064   23.9503   -2.7852 H         1 UNK         0.0788 
     98 H98        22.3783   25.2765   -1.9815 H         1 UNK         0.0788 
     99 H99        24.2920   22.3011   -1.3170 H         1 UNK         0.2993 
    100 H100       25.0806   20.5752    1.5173 H         1 UNK         0.0949 
    101 H101       25.2680   20.5098   -1.5504 H         1 UNK         0.0767 
    102 H102       25.2118   19.1253   -0.4721 H         1 UNK         0.0767 
    103 H103       23.8139   20.1724   -0.6095 H         1 UNK         0.0767 
    104 H104       27.3012   20.4505    1.4135 H         1 UNK         0.3013 
    105 H105       30.4276   28.2919    1.8881 H         1 UNK         0.3121 
    106 H106       30.9720   30.4909   -0.0350 H         1 UNK         0.0774 
    107 H107       33.2794   30.3144    0.8877 H         1 UNK         0.0815 
    108 H108       32.7534   29.0567    1.9992 H         1 UNK         0.0815 
    109 H109       32.7322   28.7656    0.2643 H         1 UNK         0.0815 
    110 H110       29.2166   31.7277    0.9479 H         1 UNK         0.2987 
    111 H111       29.0037   32.4905    3.6203 H         1 UNK         0.0949 
    112 H112       27.5716   34.3438    2.7132 H         1 UNK         0.0806 
    113 H113       28.1808   34.0306    1.0939 H         1 UNK         0.0806 
    114 H114       27.2116   32.8150    1.9287 H         1 UNK         0.0806 
    115 H115       29.6747   34.1918    4.8372 H         1 UNK         0.3010 
    116 H116       30.9383   35.7121    5.7631 H         1 UNK         0.0829 
    117 H117       30.2978   37.2772    3.9338 H         1 UNK         0.0813 
    118 H118       31.9235   37.5930    4.5183 H         1 UNK         0.0813 
    119 H119       31.6954   36.7662    2.9881 H         1 UNK         0.0813 
    120 H120       32.6309   34.0773    3.1042 H         1 UNK         0.3038 
    121 H121       35.2739   34.2126    4.2591 H         1 UNK         0.0769 
    122 H122       35.7986   32.4948    2.5048 H         1 UNK         0.0811 
    123 H123       34.9223   33.8594    1.8310 H         1 UNK         0.0811 
    124 H124       34.0847   32.3397    2.1383 H         1 UNK         0.0811 
    125 H125       32.5991   31.9009    4.5160 H         1 UNK         0.3204 
    126 H126       32.1181   30.1870    5.8111 H         1 UNK         0.0748 
    127 H127       32.9675   30.0750    8.1282 H         1 UNK         0.0771 
    128 H128       34.2903   31.1662    7.7416 H         1 UNK         0.0771 
    129 H129       32.6257   31.7459    7.7110 H         1 UNK         0.0771 
    130 H130       33.9077   29.8267    3.6827 H         1 UNK         0.2980 
    131 H131       35.1847   28.3858    2.6391 H         1 UNK         0.0545 
    132 H132       36.4759   30.2300    4.8916 H         1 UNK         0.3459 
    133 H133       38.1041   29.5998    4.8708 H         1 UNK         0.3459 
    134 H134       34.7991   26.3811    4.9143 H         1 UNK         0.0616 
    135 H135       35.4024   26.0181    3.3226 H         1 UNK         0.0616 
    136 H136       32.3365   26.8271    5.4888 H         1 UNK         0.0634 
    137 H137       32.5664   25.1193    5.1983 H         1 UNK         0.0634 
@<TRIPOS>BOND
     1    1    2 1    
     2    1   72 1    
     3    1   73 1    
     4    1   74 1    
     5    2    3 2    
     6    2    4 am   BACKBONE|DICT|INTERRES
     7    4    5 1    
     8    4   75 1    
     9    5    6 1    
    10    5   35 1    
    11    5   76 1    
    12    6    7 1    
    13    6   77 1    
    14    6   78 1    
    15    7    8 1    
    16    8    9 1    
    17    8   79 1    
    18    8   80 1    
    19    9   10 ar   
    20    9   14 ar   
    21   10   11 ar   
    22   10   81 1    
    23   11   12 ar   
    24   11   71 1    
    25   12   13 ar   
    26   12   82 1    
    27   13   14 ar   
    28   13   15 1    
    29   14   83 1    
    30   15   16 1    
    31   15   84 1    
    32   15   85 1    
    33   16   17 1    
    34   17   18 1    
    35   17   86 1    
    36   17   87 1    
    37   18   19 1    
    38   18   37 1    
    39   18   88 1    
    40   19   20 am   BACKBONE|DICT|INTERRES
    41   19   89 1    
    42   20   21 2    
    43   20   22 1    
    44   22   23 1    
    45   22   24 1    
    46   22   90 1    
    47   23   91 1    
    48   23   92 1    
    49   23   93 1    
    50   24   25 am   BACKBONE|DICT|INTERRES
    51   24   94 1    
    52   25   26 2    
    53   25   27 1    
    54   27   28 1    
    55   27   29 1    
    56   27   95 1    
    57   28   96 1    
    58   28   97 1    
    59   28   98 1    
    60   29   30 am   BACKBONE|DICT|INTERRES
    61   29   99 1    
    62   30   31 2    
    63   30   32 1    
    64   32   33 1    
    65   32   34 1    
    66   32  100 1    
    67   33  101 1    
    68   33  102 1    
    69   33  103 1    
    70   34   35 am   BACKBONE|DICT|INTERRES
    71   34  104 1    
    72   35   36 2    
    73   37   38 2    
    74   37   39 am   BACKBONE|DICT|INTERRES
    75   39   40 1    
    76   39  105 1    
    77   40   41 1    
    78   40   42 1    
    79   40  106 1    
    80   41  107 1    
    81   41  108 1    
    82   41  109 1    
    83   42   43 2    
    84   42   44 am   BACKBONE|DICT|INTERRES
    85   44   45 1    
    86   44  110 1    
    87   45   46 1    
    88   45   47 1    
    89   45  111 1    
    90   46  112 1    
    91   46  113 1    
    92   46  114 1    
    93   47   48 2    
    94   47   49 am   BACKBONE|DICT|INTERRES
    95   49   50 1    
    96   49  115 1    
    97   50   51 1    
    98   50   52 1    
    99   50  116 1    
   100   51  117 1    
   101   51  118 1    
   102   51  119 1    
   103   52   53 2    
   104   52   54 am   BACKBONE|DICT|INTERRES
   105   54   55 1    
   106   54  120 1    
   107   55   56 1    
   108   55   57 1    
   109   55  121 1    
   110   56  122 1    
   111   56  123 1    
   112   56  124 1    
   113   57   58 2    
   114   57   59 am   BACKBONE|DICT|INTERRES
   115   59   60 1    
   116   59  125 1    
   117   60   61 1    
   118   60   62 1    
   119   60  126 1    
   120   61  127 1    
   121   61  128 1    
   122   61  129 1    
   123   62   63 2    
   124   62   64 am   BACKBONE|DICT|INTERRES
   125   64   65 1    
   126   64  130 1    
   127   65   66 1    
   128   65   69 1    
   129   65  131 1    
   130   66   67 am   BACKBONE|DICT|INTERRES
   131   66   68 2    
   132   67  132 1    
   133   67  133 1    
   134   69   70 1    
   135   69  134 1    
   136   69  135 1    
   137   70   71 1    
   138   71  136 1    
   139   71  137 1    
@<TRIPOS>SUBSTRUCTURE
     1 UNK         1 GROUP             0       ****    0 ROOT    
