@<TRIPOS>MOLECULE
3R136
137   139    1
SMALL
USER_CHARGES


@<TRIPOS>ATOM
      1 CA         31.6707   23.1278    5.2741 C.3       0 UNK        -0.1979 
      2 C          30.5134   22.6843    4.3915 C.2       0 UNK         0.4864 
      3 O          29.7523   21.7963    4.7775 O.2       0 UNK        -0.5359 
      4 N          30.3790   23.2981    3.2092 N.am      1 UNK        -0.4318 
      5 CA         29.3115   23.0345    2.2369 C.3       1 UNK         0.0824 
      6 C6         29.7481   23.4568    0.8132 C.3       12 UNK        -0.0944 
      7 S7         30.8267   22.2061    0.0296 S.3       12 UNK        -0.2672 
      8 C8         32.5148   22.8361    0.3268 C.3       12 UNK         0.0333 
      9 C9         32.7329   24.2558   -0.1830 C.ar      12 UNK        -0.0807 
     10 C10        33.3361   25.2043    0.6463 C.ar      12 UNK        -0.0894 
     11 C11        33.4716   26.5328    0.2334 C.ar      12 UNK        -0.0804 
     12 C12        33.0344   26.9007   -1.0437 C.ar      12 UNK        -0.0824 
     13 C13        32.4657   25.9512   -1.9003 C.ar      12 UNK        -0.0762 
     14 C14        32.3251   24.6305   -1.4669 C.ar      12 UNK        -0.0782 
     15 C15        31.9780   26.3495   -3.2870 C.3       12 UNK         0.0230 
     16 S16        30.1597   26.2992   -3.4072 S.3       12 UNK        -0.2608 
     17 C17        29.7130   27.4980   -2.1121 C.3       12 UNK        -0.0989 
     18 CA         28.2308   27.9502   -2.1872 C.3       5 UNK         0.0716 
     19 N          27.2457   26.8702   -2.0459 N.am      5 UNK        -0.4135 
     20 C          27.0838   26.0443   -1.0052 C.2       4 UNK         0.5031 
     21 O          27.8129   26.0317   -0.0103 O.2       4 UNK        -0.5229 
     22 CA         25.8932   25.0779   -1.0881 C.3       4 UNK         0.0329 
     23 CB         26.3334   23.6554   -1.4685 C.3       4 UNK        -0.2001 
     24 N          25.1976   25.0529    0.1962 N.am      4 UNK        -0.4303 
     25 C          24.2827   25.9615    0.5630 C.2       3 UNK         0.5044 
     26 O          23.8390   26.8279   -0.1923 O.2       3 UNK        -0.5152 
     27 CA         23.7695   25.9063    2.0127 C.3       3 UNK         0.0319 
     28 CB         22.4663   25.0950    2.0929 C.3       3 UNK        -0.2001 
     29 N          24.7423   25.3492    2.9537 N.am      3 UNK        -0.4354 
     30 C          25.8896   25.9416    3.3128 C.2       2 UNK         0.4964 
     31 O          26.2418   27.0537    2.9209 O.2       2 UNK        -0.5047 
     32 CA         26.7920   25.1746    4.2925 C.3       2 UNK         0.0288 
     33 CB         26.0470   24.1222    5.1463 C.3       2 UNK        -0.2113 
     34 N          27.9487   24.5715    3.6259 N.am      2 UNK        -0.4145 
     35 C          27.9509   23.6524    2.6462 C.2       1 UNK         0.5006 
     36 O          26.9247   23.2457    2.0948 O.2       1 UNK        -0.5103 
     37 C          27.9654   29.1129   -1.2106 C.2       5 UNK         0.5055 
     38 O          27.6376   30.2100   -1.6649 O.2       5 UNK        -0.5220 
     39 N          28.1434   28.8568    0.0960 N.am      6 UNK        -0.4450 
     40 CA         28.1104   29.8153    1.2107 C.3       6 UNK         0.0367 
     41 CB         26.6659   30.2942    1.4663 C.3       6 UNK        -0.1929 
     42 C          29.1014   30.9828    1.0093 C.2       6 UNK         0.5070 
     43 O          28.7575   32.1403    1.2554 O.2       6 UNK        -0.5237 
     44 N          30.3031   30.6556    0.5108 N.am      7 UNK        -0.4739 
     45 CA         31.3048   31.6164    0.0375 C.3       7 UNK         0.0276 
     46 CB         32.3823   30.8647   -0.7600 C.3       7 UNK        -0.1927 
     47 C          31.9511   32.4634    1.1461 C.2       7 UNK         0.5013 
     48 O          32.3846   33.5830    0.8695 O.2       7 UNK        -0.5193 
     49 N          32.0096   31.9242    2.3669 N.am      8 UNK        -0.4253 
     50 CA         32.5582   32.5678    3.5541 C.3       8 UNK         0.0242 
     51 CB         34.0952   32.4532    3.5477 C.3       8 UNK        -0.2000 
     52 C          31.9738   31.8781    4.7872 C.2       8 UNK         0.4948 
     53 O          31.5308   30.7304    4.6923 O.2       8 UNK        -0.5275 
     54 N          32.0540   32.5479    5.9449 N.am      9 UNK        -0.4246 
     55 CA         31.6438   32.0148    7.2532 C.3       9 UNK         0.0261 
     56 CB         31.7691   33.1221    8.3125 C.3       9 UNK        -0.1959 
     57 C          32.4200   30.7560    7.6937 C.2       9 UNK         0.5033 
     58 O          31.9293   30.0057    8.5378 O.2       9 UNK        -0.5390 
     59 N          33.5994   30.5368    7.0963 N.am      10 UNK        -0.4215 
     60 CA         34.4192   29.3352    7.2366 C.3       10 UNK         0.0240 
     61 CB         35.8149   29.6192    6.6560 C.3       10 UNK        -0.1982 
     62 C          33.8140   28.0787    6.5788 C.2       10 UNK         0.4970 
     63 O          34.2491   26.9799    6.9275 O.2       10 UNK        -0.4916 
     64 N          32.8551   28.2367    5.6534 N.am      11 UNK        -0.4279 
     65 CA         32.2039   27.1226    4.9470 C.3       11 UNK         0.1003 
     66 C          30.6621   27.2265    4.8281 C.2       11 UNK         0.5709 
     67 N          30.0463   28.3922    4.9686 N.am      11 UNK        -0.7358 
     68 O          30.0099   26.2059    4.6269 O.2       11 UNK        -0.4999 
     69 C69        32.8736   26.8010    3.5872 C.3       12 UNK        -0.0954 
     70 S70        32.8987   28.1877    2.3954 S.3       12 UNK        -0.2268 
     71 C71        34.0935   27.5652    1.1663 C.3       12 UNK         0.0203 
     72 H72        32.2157   22.2604    5.6456 H         1 UNK         0.0888 
     73 H73        32.3747   23.7607    4.7344 H         1 UNK         0.0888 
     74 H74        31.2945   23.6879    6.1298 H         1 UNK         0.0888 
     75 H75        31.0220   24.0332    2.9568 H         1 UNK         0.3017 
     76 H76        29.1334   21.9568    2.2249 H         1 UNK         0.0873 
     77 H77        28.8874   23.5564    0.1546 H         1 UNK         0.0745 
     78 H78        30.2183   24.4414    0.8174 H         1 UNK         0.0745 
     79 H79        32.7217   22.7714    1.3960 H         1 UNK         0.0705 
     80 H80        33.2278   22.1736   -0.1652 H         1 UNK         0.0705 
     81 H81        33.6870   24.9109    1.6252 H         1 UNK         0.1334 
     82 H82        33.1370   27.9259   -1.3709 H         1 UNK         0.1417 
     83 H83        31.8650   23.9011   -2.1198 H         1 UNK         0.1562 
     84 H84        32.4015   25.6698   -4.0278 H         1 UNK         0.0748 
     85 H85        32.3288   27.3482   -3.5520 H         1 UNK         0.0748 
     86 H86        30.3730   28.3615   -2.2165 H         1 UNK         0.0940 
     87 H87        29.9441   27.0550   -1.1417 H         1 UNK         0.0940 
     88 H88        28.0710   28.3534   -3.1889 H         1 UNK         0.0703 
     89 H89        26.5848   26.8034   -2.8068 H         1 UNK         0.3081 
     90 H90        25.2084   25.4295   -1.8631 H         1 UNK         0.0719 
     91 H91        26.8668   23.1614   -0.6585 H         1 UNK         0.0809 
     92 H92        25.4720   23.0348   -1.7156 H         1 UNK         0.0809 
     93 H93        26.9886   23.6632   -2.3407 H         1 UNK         0.0809 
     94 H94        25.5762   24.4291    0.9008 H         1 UNK         0.2990 
     95 H95        23.5535   26.9313    2.3219 H         1 UNK         0.0690 
     96 H96        22.0472   25.1146    3.0992 H         1 UNK         0.0788 
     97 H97        22.6215   24.0524    1.8123 H         1 UNK         0.0788 
     98 H98        21.7104   25.5043    1.4210 H         1 UNK         0.0788 
     99 H99        24.5527   24.4254    3.3148 H         1 UNK         0.2993 
    100 H100       27.1938   25.9229    4.9777 H         1 UNK         0.0949 
    101 H101       26.7051   23.7106    5.9118 H         1 UNK         0.0767 
    102 H102       25.1950   24.5659    5.6634 H         1 UNK         0.0767 
    103 H103       25.6778   23.2855    4.5524 H         1 UNK         0.0767 
    104 H104       28.8452   24.9199    3.9585 H         1 UNK         0.3013 
    105 H105       28.3083   27.8844    0.3479 H         1 UNK         0.3121 
    106 H106       28.4434   29.2726    2.0971 H         1 UNK         0.0774 
    107 H107       26.6112   30.9051    2.3680 H         1 UNK         0.0815 
    108 H108       26.2866   30.8963    0.6401 H         1 UNK         0.0815 
    109 H109       25.9883   29.4516    1.6048 H         1 UNK         0.0815 
    110 H110       30.5076   29.6781    0.3643 H         1 UNK         0.2987 
    111 H111       30.8017   32.3091   -0.6410 H         1 UNK         0.0949 
    112 H112       32.9080   30.1409   -0.1376 H         1 UNK         0.0806 
    113 H113       31.9531   30.3345   -1.6101 H         1 UNK         0.0806 
    114 H114       33.1285   31.5555   -1.1553 H         1 UNK         0.0806 
    115 H115       31.6019   31.0118    2.5331 H         1 UNK         0.3010 
    116 H116       32.2593   33.6182    3.5668 H         1 UNK         0.0829 
    117 H117       34.5270   32.9451    2.6759 H         1 UNK         0.0813 
    118 H118       34.5332   32.9242    4.4283 H         1 UNK         0.0813 
    119 H119       34.4195   31.4113    3.5348 H         1 UNK         0.0813 
    120 H120       32.4379   33.4828    5.9404 H         1 UNK         0.3038 
    121 H121       30.5921   31.7304    7.1767 H         1 UNK         0.0769 
    122 H122       32.7989   33.4657    8.4184 H         1 UNK         0.0811 
    123 H123       31.4430   32.7654    9.2907 H         1 UNK         0.0811 
    124 H124       31.1498   33.9838    8.0627 H         1 UNK         0.0811 
    125 H125       33.9204   31.2251    6.4325 H         1 UNK         0.3204 
    126 H126       34.5265   29.1238    8.3026 H         1 UNK         0.0748 
    127 H127       36.2924   30.4597    7.1602 H         1 UNK         0.0771 
    128 H128       36.4720   28.7567    6.7778 H         1 UNK         0.0771 
    129 H129       35.7706   29.8460    5.5898 H         1 UNK         0.0771 
    130 H130       32.5297   29.1646    5.4062 H         1 UNK         0.2980 
    131 H131       32.3320   26.2294    5.5613 H         1 UNK         0.0545 
    132 H132       29.0427   28.4198    4.9042 H         1 UNK         0.3459 
    133 H133       30.5723   29.2611    5.0148 H         1 UNK         0.3459 
    134 H134       32.3666   25.9556    3.1228 H         1 UNK         0.0616 
    135 H135       33.9009   26.4789    3.7629 H         1 UNK         0.0616 
    136 H136       34.4724   28.4102    0.5902 H         1 UNK         0.0634 
    137 H137       34.9589   27.1386    1.6753 H         1 UNK         0.0634 
@<TRIPOS>BOND
     1    1    2 1    
     2    1   72 1    
     3    1   73 1    
     4    1   74 1    
     5    2    3 2    
     6    2    4 am   BACKBONE|DICT|INTERRES
     7    4    5 1    
     8    4   75 1    
     9    5    6 1    
    10    5   35 1    
    11    5   76 1    
    12    6    7 1    
    13    6   77 1    
    14    6   78 1    
    15    7    8 1    
    16    8    9 1    
    17    8   79 1    
    18    8   80 1    
    19    9   10 ar   
    20    9   14 ar   
    21   10   11 ar   
    22   10   81 1    
    23   11   12 ar   
    24   11   71 1    
    25   12   13 ar   
    26   12   82 1    
    27   13   14 ar   
    28   13   15 1    
    29   14   83 1    
    30   15   16 1    
    31   15   84 1    
    32   15   85 1    
    33   16   17 1    
    34   17   18 1    
    35   17   86 1    
    36   17   87 1    
    37   18   19 1    
    38   18   37 1    
    39   18   88 1    
    40   19   20 am   BACKBONE|DICT|INTERRES
    41   19   89 1    
    42   20   21 2    
    43   20   22 1    
    44   22   23 1    
    45   22   24 1    
    46   22   90 1    
    47   23   91 1    
    48   23   92 1    
    49   23   93 1    
    50   24   25 am   BACKBONE|DICT|INTERRES
    51   24   94 1    
    52   25   26 2    
    53   25   27 1    
    54   27   28 1    
    55   27   29 1    
    56   27   95 1    
    57   28   96 1    
    58   28   97 1    
    59   28   98 1    
    60   29   30 am   BACKBONE|DICT|INTERRES
    61   29   99 1    
    62   30   31 2    
    63   30   32 1    
    64   32   33 1    
    65   32   34 1    
    66   32  100 1    
    67   33  101 1    
    68   33  102 1    
    69   33  103 1    
    70   34   35 am   BACKBONE|DICT|INTERRES
    71   34  104 1    
    72   35   36 2    
    73   37   38 2    
    74   37   39 am   BACKBONE|DICT|INTERRES
    75   39   40 1    
    76   39  105 1    
    77   40   41 1    
    78   40   42 1    
    79   40  106 1    
    80   41  107 1    
    81   41  108 1    
    82   41  109 1    
    83   42   43 2    
    84   42   44 am   BACKBONE|DICT|INTERRES
    85   44   45 1    
    86   44  110 1    
    87   45   46 1    
    88   45   47 1    
    89   45  111 1    
    90   46  112 1    
    91   46  113 1    
    92   46  114 1    
    93   47   48 2    
    94   47   49 am   BACKBONE|DICT|INTERRES
    95   49   50 1    
    96   49  115 1    
    97   50   51 1    
    98   50   52 1    
    99   50  116 1    
   100   51  117 1    
   101   51  118 1    
   102   51  119 1    
   103   52   53 2    
   104   52   54 am   BACKBONE|DICT|INTERRES
   105   54   55 1    
   106   54  120 1    
   107   55   56 1    
   108   55   57 1    
   109   55  121 1    
   110   56  122 1    
   111   56  123 1    
   112   56  124 1    
   113   57   58 2    
   114   57   59 am   BACKBONE|DICT|INTERRES
   115   59   60 1    
   116   59  125 1    
   117   60   61 1    
   118   60   62 1    
   119   60  126 1    
   120   61  127 1    
   121   61  128 1    
   122   61  129 1    
   123   62   63 2    
   124   62   64 am   BACKBONE|DICT|INTERRES
   125   64   65 1    
   126   64  130 1    
   127   65   66 1    
   128   65   69 1    
   129   65  131 1    
   130   66   67 am   BACKBONE|DICT|INTERRES
   131   66   68 2    
   132   67  132 1    
   133   67  133 1    
   134   69   70 1    
   135   69  134 1    
   136   69  135 1    
   137   70   71 1    
   138   71  136 1    
   139   71  137 1    
@<TRIPOS>SUBSTRUCTURE
     1 UNK         1 GROUP             0       ****    0 ROOT    
