@<TRIPOS>MOLECULE
3R136
137   139    1
SMALL
USER_CHARGES


@<TRIPOS>ATOM
      1 CA         30.4387   19.5233   -2.1912 C.3       0 UNK        -0.1979 
      2 C          29.6877   20.8362   -2.3581 C.2       0 UNK         0.4864 
      3 O          29.1696   21.1111   -3.4419 O.2       0 UNK        -0.5359 
      4 N          29.6318   21.6500   -1.2962 N.am      1 UNK        -0.4318 
      5 CA         28.9094   22.9262   -1.2564 C.3       1 UNK         0.0824 
      6 C6         29.3698   23.8165   -0.0759 C.3       12 UNK        -0.0944 
      7 S7         31.1328   24.2680   -0.2171 S.3       12 UNK        -0.2672 
      8 C8         31.9059   23.2630    1.0896 C.3       12 UNK         0.0333 
      9 C9         31.8795   23.9715    2.4358 C.ar      12 UNK        -0.0807 
     10 C10        32.9597   24.7684    2.8308 C.ar      12 UNK        -0.0894 
     11 C11        32.9520   25.4092    4.0734 C.ar      12 UNK        -0.0804 
     12 C12        31.8458   25.2607    4.9160 C.ar      12 UNK        -0.0824 
     13 C13        30.7563   24.4747    4.5288 C.ar      12 UNK        -0.0762 
     14 C14        30.7870   23.8190    3.2950 C.ar      12 UNK        -0.0782 
     15 C15        29.5528   24.3266    5.4516 C.3       12 UNK         0.0230 
     16 S16        28.0036   24.9289    4.6997 S.3       12 UNK        -0.2608 
     17 C17        28.3924   26.6781    4.3444 C.3       12 UNK        -0.0989 
     18 CA         28.1695   27.0207    2.8434 C.3       5 UNK         0.0716 
     19 N          26.7745   26.8408    2.4078 N.am      5 UNK        -0.4135 
     20 C          25.7062   27.5295    2.8405 C.2       4 UNK         0.5031 
     21 O          25.7589   28.4400    3.6680 O.2       4 UNK        -0.5229 
     22 CA         24.3430   27.1679    2.2251 C.3       4 UNK         0.0329 
     23 CB         23.9996   28.1416    1.0853 C.3       4 UNK        -0.2001 
     24 N          24.2583   25.7954    1.7193 N.am      4 UNK        -0.4303 
     25 C          24.2341   24.6881    2.4703 C.2       3 UNK         0.5044 
     26 O          24.3091   24.7025    3.6989 O.2       3 UNK        -0.5152 
     27 CA         24.0924   23.3301    1.7516 C.3       3 UNK         0.0319 
     28 CB         22.6155   22.8914    1.7171 C.3       3 UNK        -0.2001 
     29 N          24.6974   23.2250    0.4120 N.am      3 UNK        -0.4354 
     30 C          24.3911   23.8714   -0.7220 C.2       2 UNK         0.4964 
     31 O          23.5658   24.7840   -0.7851 O.2       2 UNK        -0.5047 
     32 CA         25.1514   23.4348   -1.9919 C.3       2 UNK         0.0288 
     33 CB         24.7162   24.2249   -3.2414 C.3       2 UNK        -0.2113 
     34 N          26.6087   23.5366   -1.8577 N.am      2 UNK        -0.4145 
     35 C          27.3900   22.6753   -1.1925 C.2       1 UNK         0.5006 
     36 O          26.9509   21.7314   -0.5281 O.2       1 UNK        -0.5103 
     37 C          28.7425   28.4060    2.4589 C.2       5 UNK         0.5055 
     38 O          29.6979   28.8681    3.0790 O.2       5 UNK        -0.5220 
     39 N          28.1960   29.0416    1.4124 N.am      6 UNK        -0.4450 
     40 CA         28.5947   30.3662    0.9205 C.3       6 UNK         0.0367 
     41 CB         27.3879   31.0120    0.2135 C.3       6 UNK        -0.1929 
     42 C          29.8519   30.3228    0.0240 C.2       6 UNK         0.5070 
     43 O          29.9154   31.0318   -0.9815 O.2       6 UNK        -0.5237 
     44 N          30.8236   29.4760    0.3839 N.am      7 UNK        -0.4739 
     45 CA         32.0657   29.2586   -0.3606 C.3       7 UNK         0.0276 
     46 CB         32.6311   27.8782    0.0067 C.3       7 UNK        -0.1927 
     47 C          33.1163   30.3540   -0.1175 C.2       7 UNK         0.5013 
     48 O          33.9386   30.6036   -0.9999 O.2       7 UNK        -0.5193 
     49 N          33.0752   30.9816    1.0625 N.am      8 UNK        -0.4253 
     50 CA         33.9857   32.0259    1.5202 C.3       8 UNK         0.0242 
     51 CB         35.3719   31.4260    1.8365 C.3       8 UNK        -0.2000 
     52 C          33.3859   32.6652    2.7755 C.2       8 UNK         0.4948 
     53 O          32.5115   32.0655    3.4072 O.2       8 UNK        -0.5275 
     54 N          33.9105   33.8358    3.1613 N.am      9 UNK        -0.4246 
     55 CA         33.5429   34.5428    4.3957 C.3       9 UNK         0.0261 
     56 CB         34.2182   35.9237    4.4156 C.3       9 UNK        -0.1959 
     57 C          33.8782   33.7582    5.6796 C.2       9 UNK         0.5033 
     58 O          33.1830   33.9179    6.6833 O.2       9 UNK        -0.5390 
     59 N          34.9175   32.9129    5.6172 N.am      10 UNK        -0.4215 
     60 CA         35.2927   31.9714    6.6741 C.3       10 UNK         0.0240 
     61 CB         36.7288   31.4803    6.4273 C.3       10 UNK        -0.1982 
     62 C          34.3293   30.7747    6.7831 C.2       10 UNK         0.4970 
     63 O          34.1672   30.2384    7.8799 O.2       10 UNK        -0.4916 
     64 N          33.7219   30.3735    5.6588 N.am      11 UNK        -0.4279 
     65 CA         32.7166   29.3048    5.5935 C.3       11 UNK         0.1003 
     66 C          31.3079   29.8007    6.0145 C.2       11 UNK         0.5709 
     67 N          30.9009   30.9988    5.6120 N.am      11 UNK        -0.7358 
     68 O          30.5919   29.1012    6.7270 O.2       11 UNK        -0.4999 
     69 C69        32.6653   28.6387    4.1964 C.3       12 UNK        -0.0954 
     70 S70        34.2372   27.8655    3.6940 S.3       12 UNK        -0.2268 
     71 C71        34.1463   26.2439    4.5202 C.3       12 UNK         0.0203 
     72 H72        30.8616   19.4193   -1.1920 H         1 UNK         0.0888 
     73 H73        29.7672   18.6828   -2.3644 H         1 UNK         0.0888 
     74 H74        31.2540   19.4631   -2.9117 H         1 UNK         0.0888 
     75 H75        30.0493   21.3573   -0.4260 H         1 UNK         0.3017 
     76 H76        29.1239   23.4580   -2.1866 H         1 UNK         0.0873 
     77 H77        28.7999   24.7474   -0.0535 H         1 UNK         0.0745 
     78 H78        29.1782   23.3227    0.8769 H         1 UNK         0.0745 
     79 H79        32.9386   23.0589    0.8024 H         1 UNK         0.0705 
     80 H80        31.4169   22.2906    1.1589 H         1 UNK         0.0705 
     81 H81        33.8104   24.8879    2.1737 H         1 UNK         0.1334 
     82 H82        31.8330   25.7617    5.8745 H         1 UNK         0.1417 
     83 H83        29.9510   23.1979    3.0064 H         1 UNK         0.1562 
     84 H84        29.7142   24.8569    6.3915 H         1 UNK         0.0748 
     85 H85        29.4323   23.2740    5.7111 H         1 UNK         0.0748 
     86 H86        29.4232   26.8785    4.6404 H         1 UNK         0.0940 
     87 H87        27.7790   27.3126    4.9856 H         1 UNK         0.0940 
     88 H88        28.7579   26.3095    2.2609 H         1 UNK         0.0703 
     89 H89        26.6133   26.1050    1.7364 H         1 UNK         0.3081 
     90 H90        23.5923   27.2822    3.0099 H         1 UNK         0.0719 
     91 H91        22.9944   27.9636    0.7025 H         1 UNK         0.0809 
     92 H92        24.6958   28.0506    0.2506 H         1 UNK         0.0809 
     93 H93        24.0347   29.1764    1.4294 H         1 UNK         0.0809 
     94 H94        24.1035   25.6725    0.7210 H         1 UNK         0.2990 
     95 H95        24.6321   22.6077    2.3661 H         1 UNK         0.0690 
     96 H96        22.5094   21.8877    1.3055 H         1 UNK         0.0788 
     97 H97        22.0043   23.5667    1.1173 H         1 UNK         0.0788 
     98 H98        22.1895   22.8755    2.7213 H         1 UNK         0.0788 
     99 H99        25.4372   22.5309    0.3314 H         1 UNK         0.2993 
    100 H100       24.8946   22.3867   -2.1628 H         1 UNK         0.0949 
    101 H101       23.6417   24.1346   -3.4077 H         1 UNK         0.0767 
    102 H102       24.9439   25.2876   -3.1480 H         1 UNK         0.0767 
    103 H103       25.2109   23.8525   -4.1388 H         1 UNK         0.0767 
    104 H104       27.0442   24.3054   -2.3472 H         1 UNK         0.3013 
    105 H105       27.4472   28.5845    0.9144 H         1 UNK         0.3121 
    106 H106       28.8465   30.9936    1.7786 H         1 UNK         0.0774 
    107 H107       27.6131   32.0344   -0.0929 H         1 UNK         0.0815 
    108 H108       27.1010   30.4585   -0.6814 H         1 UNK         0.0815 
    109 H109       26.5207   31.0598    0.8725 H         1 UNK         0.0815 
    110 H110       30.7041   28.9699    1.2542 H         1 UNK         0.2987 
    111 H111       31.8375   29.2580   -1.4290 H         1 UNK         0.0949 
    112 H112       31.9372   27.0863   -0.2710 H         1 UNK         0.0806 
    113 H113       33.5689   27.6841   -0.5157 H         1 UNK         0.0806 
    114 H114       32.8269   27.7900    1.0752 H         1 UNK         0.0806 
    115 H115       32.3415   30.7569    1.7237 H         1 UNK         0.3010 
    116 H116       34.0724   32.7881    0.7431 H         1 UNK         0.0829 
    117 H117       35.8269   30.9797    0.9524 H         1 UNK         0.0813 
    118 H118       36.0641   32.1884    2.1953 H         1 UNK         0.0813 
    119 H119       35.3099   30.6513    2.6019 H         1 UNK         0.0813 
    120 H120       34.6227   34.2657    2.5875 H         1 UNK         0.3038 
    121 H121       32.4609   34.6915    4.3812 H         1 UNK         0.0769 
    122 H122       35.3059   35.8435    4.4061 H         1 UNK         0.0811 
    123 H123       33.9408   36.4802    5.3122 H         1 UNK         0.0811 
    124 H124       33.9170   36.5259    3.5582 H         1 UNK         0.0811 
    125 H125       35.4520   32.8778    4.7621 H         1 UNK         0.3204 
    126 H126       35.2719   32.5010    7.6292 H         1 UNK         0.0748 
    127 H127       37.0477   30.7974    7.2162 H         1 UNK         0.0771 
    128 H128       36.8179   30.9468    5.4799 H         1 UNK         0.0771 
    129 H129       37.4359   32.3100    6.4149 H         1 UNK         0.0771 
    130 H130       33.8462   30.9059    4.8109 H         1 UNK         0.2980 
    131 H131       33.0000   28.5288    6.3071 H         1 UNK         0.0545 
    132 H132       31.4620   31.5259    4.9506 H         1 UNK         0.3459 
    133 H133       29.9892   31.3294    5.8810 H         1 UNK         0.3459 
    134 H134       32.4041   29.3756    3.4369 H         1 UNK         0.0616 
    135 H135       31.8754   27.8899    4.1566 H         1 UNK         0.0616 
    136 H136       35.0654   25.6954    4.3103 H         1 UNK         0.0634 
    137 H137       34.1269   26.3970    5.6002 H         1 UNK         0.0634 
@<TRIPOS>BOND
     1    1    2 1    
     2    1   72 1    
     3    1   73 1    
     4    1   74 1    
     5    2    3 2    
     6    2    4 am   BACKBONE|DICT|INTERRES
     7    4    5 1    
     8    4   75 1    
     9    5    6 1    
    10    5   35 1    
    11    5   76 1    
    12    6    7 1    
    13    6   77 1    
    14    6   78 1    
    15    7    8 1    
    16    8    9 1    
    17    8   79 1    
    18    8   80 1    
    19    9   10 ar   
    20    9   14 ar   
    21   10   11 ar   
    22   10   81 1    
    23   11   12 ar   
    24   11   71 1    
    25   12   13 ar   
    26   12   82 1    
    27   13   14 ar   
    28   13   15 1    
    29   14   83 1    
    30   15   16 1    
    31   15   84 1    
    32   15   85 1    
    33   16   17 1    
    34   17   18 1    
    35   17   86 1    
    36   17   87 1    
    37   18   19 1    
    38   18   37 1    
    39   18   88 1    
    40   19   20 am   BACKBONE|DICT|INTERRES
    41   19   89 1    
    42   20   21 2    
    43   20   22 1    
    44   22   23 1    
    45   22   24 1    
    46   22   90 1    
    47   23   91 1    
    48   23   92 1    
    49   23   93 1    
    50   24   25 am   BACKBONE|DICT|INTERRES
    51   24   94 1    
    52   25   26 2    
    53   25   27 1    
    54   27   28 1    
    55   27   29 1    
    56   27   95 1    
    57   28   96 1    
    58   28   97 1    
    59   28   98 1    
    60   29   30 am   BACKBONE|DICT|INTERRES
    61   29   99 1    
    62   30   31 2    
    63   30   32 1    
    64   32   33 1    
    65   32   34 1    
    66   32  100 1    
    67   33  101 1    
    68   33  102 1    
    69   33  103 1    
    70   34   35 am   BACKBONE|DICT|INTERRES
    71   34  104 1    
    72   35   36 2    
    73   37   38 2    
    74   37   39 am   BACKBONE|DICT|INTERRES
    75   39   40 1    
    76   39  105 1    
    77   40   41 1    
    78   40   42 1    
    79   40  106 1    
    80   41  107 1    
    81   41  108 1    
    82   41  109 1    
    83   42   43 2    
    84   42   44 am   BACKBONE|DICT|INTERRES
    85   44   45 1    
    86   44  110 1    
    87   45   46 1    
    88   45   47 1    
    89   45  111 1    
    90   46  112 1    
    91   46  113 1    
    92   46  114 1    
    93   47   48 2    
    94   47   49 am   BACKBONE|DICT|INTERRES
    95   49   50 1    
    96   49  115 1    
    97   50   51 1    
    98   50   52 1    
    99   50  116 1    
   100   51  117 1    
   101   51  118 1    
   102   51  119 1    
   103   52   53 2    
   104   52   54 am   BACKBONE|DICT|INTERRES
   105   54   55 1    
   106   54  120 1    
   107   55   56 1    
   108   55   57 1    
   109   55  121 1    
   110   56  122 1    
   111   56  123 1    
   112   56  124 1    
   113   57   58 2    
   114   57   59 am   BACKBONE|DICT|INTERRES
   115   59   60 1    
   116   59  125 1    
   117   60   61 1    
   118   60   62 1    
   119   60  126 1    
   120   61  127 1    
   121   61  128 1    
   122   61  129 1    
   123   62   63 2    
   124   62   64 am   BACKBONE|DICT|INTERRES
   125   64   65 1    
   126   64  130 1    
   127   65   66 1    
   128   65   69 1    
   129   65  131 1    
   130   66   67 am   BACKBONE|DICT|INTERRES
   131   66   68 2    
   132   67  132 1    
   133   67  133 1    
   134   69   70 1    
   135   69  134 1    
   136   69  135 1    
   137   70   71 1    
   138   71  136 1    
   139   71  137 1    
@<TRIPOS>SUBSTRUCTURE
     1 UNK         1 GROUP             0       ****    0 ROOT    
