@<TRIPOS>MOLECULE
3R136
137   139    1
SMALL
USER_CHARGES


@<TRIPOS>ATOM
      1 CA         25.7228   21.6155    0.3856 C.3       0 UNK        -0.1979 
      2 C          26.8968   22.4716   -0.0630 C.2       0 UNK         0.4864 
      3 O          27.0952   23.5591    0.4810 O.2       0 UNK        -0.5359 
      4 N          27.6721   21.9929   -1.0484 N.am      1 UNK        -0.4318 
      5 CA         28.8475   22.6587   -1.6231 C.3       1 UNK         0.0824 
      6 C6         30.0104   22.7581   -0.5991 C.3       12 UNK        -0.0944 
      7 S7         31.6060   23.2567   -1.3325 S.3       12 UNK        -0.2672 
      8 C8         32.7865   22.5542   -0.1349 C.3       12 UNK         0.0333 
      9 C9         32.5359   23.0766    1.2726 C.ar      12 UNK        -0.0807 
     10 C10        33.0520   24.3120    1.6735 C.ar      12 UNK        -0.0894 
     11 C11        32.7909   24.8082    2.9552 C.ar      12 UNK        -0.0804 
     12 C12        32.0032   24.0585    3.8354 C.ar      12 UNK        -0.0824 
     13 C13        31.4801   22.8216    3.4423 C.ar      12 UNK        -0.0762 
     14 C14        31.7643   22.3305    2.1671 C.ar      12 UNK        -0.0782 
     15 C15        30.5909   22.0137    4.3761 C.3       12 UNK         0.0230 
     16 S16        28.8246   22.3306    4.0503 S.3       12 UNK        -0.2608 
     17 C17        28.6628   24.0250    4.6999 C.3       12 UNK        -0.0989 
     18 CA         28.5937   25.0913    3.5669 C.3       5 UNK         0.0716 
     19 N          27.3187   25.0691    2.8412 N.am      5 UNK        -0.4135 
     20 C          26.1084   25.3840    3.3239 C.2       4 UNK         0.5031 
     21 O          25.8893   25.7322    4.4862 O.2       4 UNK        -0.5229 
     22 CA         24.9522   25.3050    2.3085 C.3       4 UNK         0.0329 
     23 CB         23.5600   25.4920    2.9506 C.3       4 UNK        -0.2001 
     24 N          25.1536   26.2392    1.1927 N.am      4 UNK        -0.4303 
     25 C          25.2457   27.5773    1.2642 C.2       3 UNK         0.5044 
     26 O          25.0905   28.2229    2.3012 O.2       3 UNK        -0.5152 
     27 CA         25.5467   28.3247   -0.0534 C.3       3 UNK         0.0319 
     28 CB         26.1214   29.7374    0.1799 C.3       3 UNK        -0.2001 
     29 N          26.3932   27.5876   -1.0020 N.am      3 UNK        -0.4354 
     30 C          27.6201   27.0918   -0.7874 C.2       2 UNK         0.4964 
     31 O          28.2117   27.1276    0.2973 O.2       2 UNK        -0.5047 
     32 CA         28.3049   26.4565   -2.0020 C.3       2 UNK         0.0288 
     33 CB         29.5266   27.2728   -2.4516 C.3       2 UNK        -0.2113 
     34 N          28.7366   25.1199   -1.6240 N.am      2 UNK        -0.4145 
     35 C          28.4312   23.9940   -2.2786 C.2       1 UNK         0.5006 
     36 O          27.8165   23.9655   -3.3475 O.2       1 UNK        -0.5103 
     37 C          28.9423   26.5105    4.0691 C.2       5 UNK         0.5055 
     38 O          29.2084   26.6864    5.2608 O.2       5 UNK        -0.5220 
     39 N          28.9323   27.5013    3.1654 N.am      6 UNK        -0.4450 
     40 CA         29.2442   28.8923    3.5131 C.3       6 UNK         0.0367 
     41 CB         27.9575   29.6440    3.8933 C.3       6 UNK        -0.1929 
     42 C          30.0155   29.6509    2.4274 C.2       6 UNK         0.5070 
     43 O          30.7881   30.5419    2.7786 O.2       6 UNK        -0.5237 
     44 N          29.8048   29.3211    1.1437 N.am      7 UNK        -0.4739 
     45 CA         30.3447   30.0253   -0.0284 C.3       7 UNK         0.0276 
     46 CB         31.8420   29.6895   -0.2117 C.3       7 UNK        -0.1927 
     47 C          30.0262   31.5363    0.0146 C.2       7 UNK         0.5013 
     48 O          28.8556   31.8917    0.1629 O.2       7 UNK        -0.5193 
     49 N          31.0517   32.3922   -0.0971 N.am      8 UNK        -0.4253 
     50 CA         30.9437   33.8317    0.1479 C.3       8 UNK         0.0242 
     51 CB         32.1284   34.5658   -0.5047 C.3       8 UNK        -0.2000 
     52 C          30.8577   34.1307    1.6552 C.2       8 UNK         0.4948 
     53 O          29.9026   34.7740    2.0920 O.2       8 UNK        -0.5275 
     54 N          31.8495   33.6417    2.4117 N.am      9 UNK        -0.4246 
     55 CA         31.9714   33.7451    3.8675 C.3       9 UNK         0.0261 
     56 CB         32.1708   35.2135    4.3100 C.3       9 UNK        -0.1959 
     57 C          33.1196   32.8318    4.3305 C.2       9 UNK         0.5033 
     58 O          34.0577   33.2991    4.9803 O.2       9 UNK        -0.5390 
     59 N          33.0553   31.5544    3.9407 N.am      10 UNK        -0.4215 
     60 CA         34.0603   30.5319    4.2266 C.3       10 UNK         0.0240 
     61 CB         34.3666   29.7725    2.9242 C.3       10 UNK        -0.1982 
     62 C          33.5477   29.5513    5.2896 C.2       10 UNK         0.4970 
     63 O          32.3371   29.4021    5.4634 O.2       10 UNK        -0.4916 
     64 N          34.4949   28.8656    5.9406 N.am      11 UNK        -0.4279 
     65 CA         34.2761   27.7429    6.8729 C.3       11 UNK         0.1003 
     66 C          33.5570   28.1120    8.2069 C.2       11 UNK         0.5709 
     67 N          33.4646   29.3835    8.5781 N.am      11 UNK        -0.7358 
     68 O          33.1101   27.2328    8.9402 O.2       11 UNK        -0.4999 
     69 C69        33.6605   26.4890    6.1812 C.3       12 UNK        -0.0954 
     70 S70        34.5971   25.9811    4.6946 S.3       12 UNK        -0.2268 
     71 C71        33.3508   26.1591    3.3781 C.3       12 UNK         0.0203 
     72 H72        24.7857   22.1417    0.2069 H         1 UNK         0.0888 
     73 H73        25.6858   20.6635   -0.1435 H         1 UNK         0.0888 
     74 H74        25.8003   21.4081    1.4526 H         1 UNK         0.0888 
     75 H75        27.4305   21.1092   -1.4750 H         1 UNK         0.3017 
     76 H76        29.1855   22.0162   -2.4379 H         1 UNK         0.0873 
     77 H77        29.7699   23.4282    0.2282 H         1 UNK         0.0745 
     78 H78        30.1492   21.7744   -0.1494 H         1 UNK         0.0745 
     79 H79        33.8014   22.8044   -0.4474 H         1 UNK         0.0705 
     80 H80        32.7199   21.4653   -0.1580 H         1 UNK         0.0705 
     81 H81        33.6478   24.8902    0.9803 H         1 UNK         0.1334 
     82 H82        31.7963   24.4443    4.8240 H         1 UNK         0.1417 
     83 H83        31.3578   21.3757    1.8626 H         1 UNK         0.1562 
     84 H84        30.8250   22.2316    5.4194 H         1 UNK         0.0748 
     85 H85        30.7870   20.9489    4.2406 H         1 UNK         0.0748 
     86 H86        29.5021   24.2074    5.3717 H         1 UNK         0.0940 
     87 H87        27.7786   24.0733    5.3367 H         1 UNK         0.0940 
     88 H88        29.3614   24.8511    2.8296 H         1 UNK         0.0703 
     89 H89        27.3624   24.7230    1.8836 H         1 UNK         0.3081 
     90 H90        24.9745   24.3002    1.8857 H         1 UNK         0.0719 
     91 H91        23.4562   26.4655    3.4305 H         1 UNK         0.0809 
     92 H92        22.7661   25.3970    2.2100 H         1 UNK         0.0809 
     93 H93        23.3827   24.7354    3.7157 H         1 UNK         0.0809 
     94 H94        25.3302   25.8087    0.2957 H         1 UNK         0.2990 
     95 H95        24.5803   28.4464   -0.5448 H         1 UNK         0.0690 
     96 H96        26.2733   30.2662   -0.7610 H         1 UNK         0.0788 
     97 H97        27.0787   29.7027    0.6971 H         1 UNK         0.0788 
     98 H98        25.4474   30.3459    0.7840 H         1 UNK         0.0788 
     99 H99        25.9982   27.4809   -1.9266 H         1 UNK         0.2993 
    100 H100       27.5940   26.4117   -2.8300 H         1 UNK         0.0949 
    101 H101       30.2700   27.3576   -1.6582 H         1 UNK         0.0767 
    102 H102       30.0127   26.8096   -3.3105 H         1 UNK         0.0767 
    103 H103       29.2352   28.2800   -2.7511 H         1 UNK         0.0767 
    104 H104       29.1801   25.0473   -0.7187 H         1 UNK         0.3013 
    105 H105       28.6949   27.2948    2.1991 H         1 UNK         0.3121 
    106 H106       29.9021   28.9033    4.3849 H         1 UNK         0.0774 
    107 H107       28.1747   30.6772    4.1677 H         1 UNK         0.0815 
    108 H108       27.2464   29.6677    3.0686 H         1 UNK         0.0815 
    109 H109       27.4634   29.1779    4.7459 H         1 UNK         0.0815 
    110 H110       29.1459   28.5787    0.9265 H         1 UNK         0.2987 
    111 H111       29.8050   29.6408   -0.8924 H         1 UNK         0.0949 
    112 H112       32.0009   28.6112   -0.2302 H         1 UNK         0.0806 
    113 H113       32.2236   30.0813   -1.1553 H         1 UNK         0.0806 
    114 H114       32.4548   30.0951    0.5928 H         1 UNK         0.0806 
    115 H115       31.9777   32.0145   -0.2322 H         1 UNK         0.3010 
    116 H116       30.0264   34.1986   -0.3186 H         1 UNK         0.0829 
    117 H117       32.1328   34.4231   -1.5855 H         1 UNK         0.0813 
    118 H118       32.0675   35.6396   -0.3222 H         1 UNK         0.0813 
    119 H119       33.0896   34.2240   -0.1193 H         1 UNK         0.0813 
    120 H120       32.5792   33.1075    1.9612 H         1 UNK         0.3038 
    121 H121       31.0530   33.3633    4.3181 H         1 UNK         0.0769 
    122 H122       32.3038   35.2818    5.3905 H         1 UNK         0.0811 
    123 H123       31.3114   35.8347    4.0599 H         1 UNK         0.0811 
    124 H124       33.0511   35.6564    3.8428 H         1 UNK         0.0811 
    125 H125       32.1959   31.2144    3.4993 H         1 UNK         0.3204 
    126 H126       34.9821   30.9928    4.5878 H         1 UNK         0.0748 
    127 H127       35.1528   29.0315    3.0752 H         1 UNK         0.0771 
    128 H128       33.4878   29.2422    2.5554 H         1 UNK         0.0771 
    129 H129       34.7059   30.4487    2.1394 H         1 UNK         0.0771 
    130 H130       35.4628   29.0685    5.7381 H         1 UNK         0.2980 
    131 H131       35.2785   27.4563    7.1925 H         1 UNK         0.0545 
    132 H132       33.0098   29.6121    9.4478 H         1 UNK         0.3459 
    133 H133       33.8301   30.1145    7.9897 H         1 UNK         0.3459 
    134 H134       32.6136   26.6672    5.9315 H         1 UNK         0.0616 
    135 H135       33.6624   25.6393    6.8659 H         1 UNK         0.0616 
    136 H136       32.5386   26.8178    3.6889 H         1 UNK         0.0634 
    137 H137       33.8263   26.6536    2.5300 H         1 UNK         0.0634 
@<TRIPOS>BOND
     1    1    2 1    
     2    1   72 1    
     3    1   73 1    
     4    1   74 1    
     5    2    3 2    
     6    2    4 am   BACKBONE|DICT|INTERRES
     7    4    5 1    
     8    4   75 1    
     9    5    6 1    
    10    5   35 1    
    11    5   76 1    
    12    6    7 1    
    13    6   77 1    
    14    6   78 1    
    15    7    8 1    
    16    8    9 1    
    17    8   79 1    
    18    8   80 1    
    19    9   10 ar   
    20    9   14 ar   
    21   10   11 ar   
    22   10   81 1    
    23   11   12 ar   
    24   11   71 1    
    25   12   13 ar   
    26   12   82 1    
    27   13   14 ar   
    28   13   15 1    
    29   14   83 1    
    30   15   16 1    
    31   15   84 1    
    32   15   85 1    
    33   16   17 1    
    34   17   18 1    
    35   17   86 1    
    36   17   87 1    
    37   18   19 1    
    38   18   37 1    
    39   18   88 1    
    40   19   20 am   BACKBONE|DICT|INTERRES
    41   19   89 1    
    42   20   21 2    
    43   20   22 1    
    44   22   23 1    
    45   22   24 1    
    46   22   90 1    
    47   23   91 1    
    48   23   92 1    
    49   23   93 1    
    50   24   25 am   BACKBONE|DICT|INTERRES
    51   24   94 1    
    52   25   26 2    
    53   25   27 1    
    54   27   28 1    
    55   27   29 1    
    56   27   95 1    
    57   28   96 1    
    58   28   97 1    
    59   28   98 1    
    60   29   30 am   BACKBONE|DICT|INTERRES
    61   29   99 1    
    62   30   31 2    
    63   30   32 1    
    64   32   33 1    
    65   32   34 1    
    66   32  100 1    
    67   33  101 1    
    68   33  102 1    
    69   33  103 1    
    70   34   35 am   BACKBONE|DICT|INTERRES
    71   34  104 1    
    72   35   36 2    
    73   37   38 2    
    74   37   39 am   BACKBONE|DICT|INTERRES
    75   39   40 1    
    76   39  105 1    
    77   40   41 1    
    78   40   42 1    
    79   40  106 1    
    80   41  107 1    
    81   41  108 1    
    82   41  109 1    
    83   42   43 2    
    84   42   44 am   BACKBONE|DICT|INTERRES
    85   44   45 1    
    86   44  110 1    
    87   45   46 1    
    88   45   47 1    
    89   45  111 1    
    90   46  112 1    
    91   46  113 1    
    92   46  114 1    
    93   47   48 2    
    94   47   49 am   BACKBONE|DICT|INTERRES
    95   49   50 1    
    96   49  115 1    
    97   50   51 1    
    98   50   52 1    
    99   50  116 1    
   100   51  117 1    
   101   51  118 1    
   102   51  119 1    
   103   52   53 2    
   104   52   54 am   BACKBONE|DICT|INTERRES
   105   54   55 1    
   106   54  120 1    
   107   55   56 1    
   108   55   57 1    
   109   55  121 1    
   110   56  122 1    
   111   56  123 1    
   112   56  124 1    
   113   57   58 2    
   114   57   59 am   BACKBONE|DICT|INTERRES
   115   59   60 1    
   116   59  125 1    
   117   60   61 1    
   118   60   62 1    
   119   60  126 1    
   120   61  127 1    
   121   61  128 1    
   122   61  129 1    
   123   62   63 2    
   124   62   64 am   BACKBONE|DICT|INTERRES
   125   64   65 1    
   126   64  130 1    
   127   65   66 1    
   128   65   69 1    
   129   65  131 1    
   130   66   67 am   BACKBONE|DICT|INTERRES
   131   66   68 2    
   132   67  132 1    
   133   67  133 1    
   134   69   70 1    
   135   69  134 1    
   136   69  135 1    
   137   70   71 1    
   138   71  136 1    
   139   71  137 1    
@<TRIPOS>SUBSTRUCTURE
     1 UNK         1 GROUP             0       ****    0 ROOT    
