@<TRIPOS>MOLECULE
3R136
137   139    1
SMALL
USER_CHARGES


@<TRIPOS>ATOM
      1 CA         28.2449   22.6117   -2.5560 C.3       0 UNK        -0.1979 
      2 C          28.1614   22.1962   -1.0953 C.2       0 UNK         0.4864 
      3 O          27.5329   21.1840   -0.7841 O.2       0 UNK        -0.5359 
      4 N          28.7717   22.9771   -0.1920 N.am      1 UNK        -0.4318 
      5 CA         28.9027   22.7423    1.2567 C.3       1 UNK         0.0824 
      6 C6         29.5686   21.3795    1.5985 C.3       12 UNK        -0.0944 
      7 S7         30.7186   21.4875    3.0083 S.3       12 UNK        -0.2672 
      8 C8         32.3164   21.7011    2.1567 C.3       12 UNK         0.0333 
      9 C9         32.5243   23.1408    1.7079 C.ar      12 UNK        -0.0807 
     10 C10        33.1741   24.0442    2.5512 C.ar      12 UNK        -0.0894 
     11 C11        33.3712   25.3710    2.1597 C.ar      12 UNK        -0.0804 
     12 C12        32.8913   25.8004    0.9158 C.ar      12 UNK        -0.0824 
     13 C13        32.2491   24.9013    0.0553 C.ar      12 UNK        -0.0762 
     14 C14        32.0848   23.5699    0.4520 C.ar      12 UNK        -0.0782 
     15 C15        31.7767   25.3455   -1.3233 C.3       12 UNK         0.0230 
     16 S16        30.0476   25.9363   -1.3096 S.3       12 UNK        -0.2608 
     17 C17        30.2237   27.6873   -1.8284 C.3       12 UNK        -0.0989 
     18 CA         29.6286   28.7287   -0.8466 C.3       5 UNK         0.0716 
     19 N          28.1672   28.6395   -0.7437 N.am      5 UNK        -0.4135 
     20 C          27.3933   29.4893   -0.0507 C.2       4 UNK         0.5031 
     21 O          27.8383   30.4683    0.5471 O.2       4 UNK        -0.5229 
     22 CA         25.8770   29.2216    0.0233 C.3       4 UNK         0.0329 
     23 CB         25.1036   30.3351   -0.7025 C.3       4 UNK        -0.2001 
     24 N          25.4275   27.9216   -0.4857 N.am      4 UNK        -0.4303 
     25 C          25.7737   26.7233    0.0008 C.2       3 UNK         0.5044 
     26 O          26.6047   26.5598    0.8980 O.2       3 UNK        -0.5152 
     27 CA         25.1181   25.5168   -0.6925 C.3       3 UNK         0.0319 
     28 CB         25.7304   25.3073   -2.0885 C.3       3 UNK        -0.2001 
     29 N          25.2910   24.2883    0.0777 N.am      3 UNK        -0.4354 
     30 C          24.6484   23.9701    1.2108 C.2       2 UNK         0.4964 
     31 O          23.7227   24.6291    1.6857 O.2       2 UNK        -0.5047 
     32 CA         25.1240   22.6943    1.9342 C.3       2 UNK         0.0288 
     33 CB         24.2024   21.5087    1.6055 C.3       2 UNK        -0.2113 
     34 N          26.5004   22.3482    1.5691 N.am      2 UNK        -0.4145 
     35 C          27.5889   22.9790    2.0287 C.2       1 UNK         0.5006 
     36 O          27.5711   23.7629    2.9780 O.2       1 UNK        -0.5103 
     37 C          30.3315   28.6981    0.5261 C.2       5 UNK         0.5055 
     38 O          31.2794   29.4551    0.7372 O.2       5 UNK        -0.5220 
     39 N          29.8265   27.8604    1.4429 N.am      6 UNK        -0.4450 
     40 CA         30.3344   27.7403    2.8072 C.3       6 UNK         0.0367 
     41 CB         29.7673   26.4716    3.4605 C.3       6 UNK        -0.1929 
     42 C          30.0413   28.9848    3.6574 C.2       6 UNK         0.5070 
     43 O          30.8960   29.3976    4.4409 O.2       6 UNK        -0.5237 
     44 N          28.8590   29.5841    3.4582 N.am      7 UNK        -0.4739 
     45 CA         28.4455   30.8342    4.0981 C.3       7 UNK         0.0276 
     46 CB         26.9300   31.0289    3.9289 C.3       7 UNK        -0.1927 
     47 C          29.2205   32.0454    3.5558 C.2       7 UNK         0.5013 
     48 O          29.6197   32.9027    4.3431 O.2       7 UNK        -0.5193 
     49 N          29.4467   32.0763    2.2340 N.am      8 UNK        -0.4253 
     50 CA         30.2495   33.0872    1.5414 C.3       8 UNK         0.0242 
     51 CB         30.0959   32.9190    0.0213 C.3       8 UNK        -0.2000 
     52 C          31.7312   33.0468    1.9499 C.2       8 UNK         0.4948 
     53 O          32.3212   34.1025    2.1828 O.2       8 UNK        -0.5275 
     54 N          32.2961   31.8352    2.0575 N.am      9 UNK        -0.4246 
     55 CA         33.6460   31.5943    2.5749 C.3       9 UNK         0.0261 
     56 CB         34.0568   30.1485    2.2547 C.3       9 UNK        -0.1959 
     57 C          33.7692   31.8482    4.0880 C.2       9 UNK         0.5033 
     58 O          34.8610   32.1808    4.5510 O.2       9 UNK        -0.5390 
     59 N          32.6607   31.6591    4.8202 N.am      10 UNK        -0.4215 
     60 CA         32.5259   31.6889    6.2805 C.3       10 UNK         0.0240 
     61 CB         32.7887   33.1045    6.8368 C.3       10 UNK        -0.1982 
     62 C          33.3700   30.5938    6.9614 C.2       10 UNK         0.4970 
     63 O          33.9585   30.8356    8.0175 O.2       10 UNK        -0.4916 
     64 N          33.4315   29.4162    6.3268 N.am      11 UNK        -0.4279 
     65 CA         34.1918   28.2528    6.7973 C.3       11 UNK         0.1003 
     66 C          33.4696   27.4638    7.9264 C.2       11 UNK         0.5709 
     67 N          34.1802   26.5765    8.6104 N.am      11 UNK        -0.7358 
     68 O          32.2798   27.6361    8.1882 O.2       11 UNK        -0.4999 
     69 C69        34.6523   27.3591    5.6144 C.3       12 UNK        -0.0954 
     70 S70        33.2970   26.6221    4.6425 S.3       12 UNK        -0.2268 
     71 C71        34.1536   26.3107    3.0670 C.3       12 UNK         0.0203 
     72 H72        27.2454   22.7070   -2.9790 H         1 UNK         0.0888 
     73 H73        28.7615   23.5620   -2.6852 H         1 UNK         0.0888 
     74 H74        28.7828   21.8554   -3.1269 H         1 UNK         0.0888 
     75 H75        29.2172   23.8279   -0.5149 H         1 UNK         0.3017 
     76 H76        29.5717   23.5384    1.5859 H         1 UNK         0.0873 
     77 H77        28.8237   20.6100    1.8104 H         1 UNK         0.0745 
     78 H78        30.1250   20.9989    0.7410 H         1 UNK         0.0745 
     79 H79        32.3899   21.0188    1.3086 H         1 UNK         0.0705 
     80 H80        33.1145   21.4109    2.8418 H         1 UNK         0.0705 
     81 H81        33.5353   23.7139    3.5159 H         1 UNK         0.1334 
     82 H82        33.0369   26.8268    0.6069 H         1 UNK         0.1417 
     83 H83        31.6061   22.8660   -0.2146 H         1 UNK         0.1562 
     84 H84        31.8459   24.5099   -2.0215 H         1 UNK         0.0748 
     85 H85        32.4548   26.1037   -1.7150 H         1 UNK         0.0748 
     86 H86        31.2727   27.9265   -2.0076 H         1 UNK         0.0940 
     87 H87        29.7438   27.7930   -2.8026 H         1 UNK         0.0940 
     88 H88        29.8349   29.7141   -1.2697 H         1 UNK         0.0703 
     89 H89        27.7329   27.8442   -1.1864 H         1 UNK         0.3081 
     90 H90        25.6101   29.2609    1.0814 H         1 UNK         0.0719 
     91 H91        25.3079   30.3356   -1.7739 H         1 UNK         0.0809 
     92 H92        24.0275   30.2282   -0.5641 H         1 UNK         0.0809 
     93 H93        25.3782   31.3190   -0.3187 H         1 UNK         0.0809 
     94 H94        24.7606   27.9523   -1.2440 H         1 UNK         0.2990 
     95 H95        24.0487   25.7123   -0.7965 H         1 UNK         0.0690 
     96 H96        26.8119   25.1755   -2.0393 H         1 UNK         0.0788 
     97 H97        25.5384   26.1621   -2.7381 H         1 UNK         0.0788 
     98 H98        25.3056   24.4327   -2.5818 H         1 UNK         0.0788 
     99 H99        26.0518   23.6916   -0.2042 H         1 UNK         0.2993 
    100 H100       25.0781   22.8842    3.0089 H         1 UNK         0.0949 
    101 H101       24.2129   21.2716    0.5407 H         1 UNK         0.0767 
    102 H102       24.4999   20.6132    2.1517 H         1 UNK         0.0767 
    103 H103       23.1702   21.7286    1.8819 H         1 UNK         0.0767 
    104 H104       26.6327   21.7184    0.7799 H         1 UNK         0.3013 
    105 H105       29.0395   27.2781    1.1871 H         1 UNK         0.3121 
    106 H106       31.4179   27.6393    2.7451 H         1 UNK         0.0774 
    107 H107       30.1096   26.3774    4.4919 H         1 UNK         0.0815 
    108 H108       28.6765   26.4718    3.4740 H         1 UNK         0.0815 
    109 H109       30.0975   25.5775    2.9313 H         1 UNK         0.0815 
    110 H110       28.2373   29.1992    2.7621 H         1 UNK         0.2987 
    111 H111       28.6611   30.7549    5.1662 H         1 UNK         0.0949 
    112 H112       26.6439   31.1184    2.8806 H         1 UNK         0.0806 
    113 H113       26.3725   30.1971    4.3595 H         1 UNK         0.0806 
    114 H114       26.5974   31.9367    4.4341 H         1 UNK         0.0806 
    115 H115       29.0094   31.3633    1.6530 H         1 UNK         0.3010 
    116 H116       29.8556   34.0676    1.8174 H         1 UNK         0.0829 
    117 H117       30.6560   33.6861   -0.5149 H         1 UNK         0.0813 
    118 H118       30.4629   31.9497   -0.3169 H         1 UNK         0.0813 
    119 H119       29.0526   33.0052   -0.2835 H         1 UNK         0.0813 
    120 H120       31.7704   31.0169    1.7582 H         1 UNK         0.3038 
    121 H121       34.3350   32.2711    2.0652 H         1 UNK         0.0769 
    122 H122       34.0567   29.9635    1.1804 H         1 UNK         0.0811 
    123 H123       33.3768   29.4320    2.7172 H         1 UNK         0.0811 
    124 H124       35.0610   29.9333    2.6226 H         1 UNK         0.0811 
    125 H125       31.8422   31.3116    4.3344 H         1 UNK         0.3204 
    126 H126       31.4842   31.4414    6.4903 H         1 UNK         0.0748 
    127 H127       32.5559   33.1552    7.9011 H         1 UNK         0.0771 
    128 H128       33.8310   33.4017    6.7175 H         1 UNK         0.0771 
    129 H129       32.1679   33.8463    6.3339 H         1 UNK         0.0771 
    130 H130       32.8393   29.2666    5.5189 H         1 UNK         0.2980 
    131 H131       35.1043   28.6408    7.2546 H         1 UNK         0.0545 
    132 H132       33.7304   26.0513    9.3438 H         1 UNK         0.3459 
    133 H133       35.1552   26.4203    8.4085 H         1 UNK         0.3459 
    134 H134       35.2730   27.9545    4.9426 H         1 UNK         0.0616 
    135 H135       35.2951   26.5524    5.9702 H         1 UNK         0.0616 
    136 H136       34.3487   27.2597    2.5679 H         1 UNK         0.0634 
    137 H137       35.1278   25.8644    3.2722 H         1 UNK         0.0634 
@<TRIPOS>BOND
     1    1    2 1    
     2    1   72 1    
     3    1   73 1    
     4    1   74 1    
     5    2    3 2    
     6    2    4 am   BACKBONE|DICT|INTERRES
     7    4    5 1    
     8    4   75 1    
     9    5    6 1    
    10    5   35 1    
    11    5   76 1    
    12    6    7 1    
    13    6   77 1    
    14    6   78 1    
    15    7    8 1    
    16    8    9 1    
    17    8   79 1    
    18    8   80 1    
    19    9   10 ar   
    20    9   14 ar   
    21   10   11 ar   
    22   10   81 1    
    23   11   12 ar   
    24   11   71 1    
    25   12   13 ar   
    26   12   82 1    
    27   13   14 ar   
    28   13   15 1    
    29   14   83 1    
    30   15   16 1    
    31   15   84 1    
    32   15   85 1    
    33   16   17 1    
    34   17   18 1    
    35   17   86 1    
    36   17   87 1    
    37   18   19 1    
    38   18   37 1    
    39   18   88 1    
    40   19   20 am   BACKBONE|DICT|INTERRES
    41   19   89 1    
    42   20   21 2    
    43   20   22 1    
    44   22   23 1    
    45   22   24 1    
    46   22   90 1    
    47   23   91 1    
    48   23   92 1    
    49   23   93 1    
    50   24   25 am   BACKBONE|DICT|INTERRES
    51   24   94 1    
    52   25   26 2    
    53   25   27 1    
    54   27   28 1    
    55   27   29 1    
    56   27   95 1    
    57   28   96 1    
    58   28   97 1    
    59   28   98 1    
    60   29   30 am   BACKBONE|DICT|INTERRES
    61   29   99 1    
    62   30   31 2    
    63   30   32 1    
    64   32   33 1    
    65   32   34 1    
    66   32  100 1    
    67   33  101 1    
    68   33  102 1    
    69   33  103 1    
    70   34   35 am   BACKBONE|DICT|INTERRES
    71   34  104 1    
    72   35   36 2    
    73   37   38 2    
    74   37   39 am   BACKBONE|DICT|INTERRES
    75   39   40 1    
    76   39  105 1    
    77   40   41 1    
    78   40   42 1    
    79   40  106 1    
    80   41  107 1    
    81   41  108 1    
    82   41  109 1    
    83   42   43 2    
    84   42   44 am   BACKBONE|DICT|INTERRES
    85   44   45 1    
    86   44  110 1    
    87   45   46 1    
    88   45   47 1    
    89   45  111 1    
    90   46  112 1    
    91   46  113 1    
    92   46  114 1    
    93   47   48 2    
    94   47   49 am   BACKBONE|DICT|INTERRES
    95   49   50 1    
    96   49  115 1    
    97   50   51 1    
    98   50   52 1    
    99   50  116 1    
   100   51  117 1    
   101   51  118 1    
   102   51  119 1    
   103   52   53 2    
   104   52   54 am   BACKBONE|DICT|INTERRES
   105   54   55 1    
   106   54  120 1    
   107   55   56 1    
   108   55   57 1    
   109   55  121 1    
   110   56  122 1    
   111   56  123 1    
   112   56  124 1    
   113   57   58 2    
   114   57   59 am   BACKBONE|DICT|INTERRES
   115   59   60 1    
   116   59  125 1    
   117   60   61 1    
   118   60   62 1    
   119   60  126 1    
   120   61  127 1    
   121   61  128 1    
   122   61  129 1    
   123   62   63 2    
   124   62   64 am   BACKBONE|DICT|INTERRES
   125   64   65 1    
   126   64  130 1    
   127   65   66 1    
   128   65   69 1    
   129   65  131 1    
   130   66   67 am   BACKBONE|DICT|INTERRES
   131   66   68 2    
   132   67  132 1    
   133   67  133 1    
   134   69   70 1    
   135   69  134 1    
   136   69  135 1    
   137   70   71 1    
   138   71  136 1    
   139   71  137 1    
@<TRIPOS>SUBSTRUCTURE
     1 UNK         1 GROUP             0       ****    0 ROOT    
