@<TRIPOS>MOLECULE
3R136
137   139    1
SMALL
USER_CHARGES


@<TRIPOS>ATOM
      1 CA         25.7319   25.7079    3.2466 C.3       0 UNK        -0.1979 
      2 C          26.5169   24.7458    2.3687 C.2       0 UNK         0.4864 
      3 O          27.1797   25.1886    1.4285 O.2       0 UNK        -0.5359 
      4 N          26.4600   23.4417    2.6758 N.am      1 UNK        -0.4318 
      5 CA         27.0869   22.3430    1.9279 C.3       1 UNK         0.0824 
      6 C6         28.6408   22.3925    1.9260 C.3       12 UNK        -0.0944 
      7 S7         29.3604   22.2330    3.5918 S.3       12 UNK        -0.2672 
      8 C8         31.0804   21.7794    3.1916 C.3       12 UNK         0.0333 
      9 C9         31.8531   22.9266    2.5499 C.ar      12 UNK        -0.0807 
     10 C10        32.6577   23.7631    3.3309 C.ar      12 UNK        -0.0894 
     11 C11        33.3943   24.7951    2.7401 C.ar      12 UNK        -0.0804 
     12 C12        33.3064   25.0003    1.3586 C.ar      12 UNK        -0.0824 
     13 C13        32.5080   24.1689    0.5656 C.ar      12 UNK        -0.0762 
     14 C14        31.7942   23.1290    1.1674 C.ar      12 UNK        -0.0782 
     15 C15        32.4602   24.3484   -0.9477 C.3       12 UNK         0.0230 
     16 S16        31.7528   25.9453   -1.4659 S.3       12 UNK        -0.2608 
     17 C17        30.0077   25.8019   -0.9490 C.3       12 UNK        -0.0989 
     18 CA         29.4540   27.1458   -0.4181 C.3       5 UNK         0.0716 
     19 N          27.9914   27.1622   -0.3765 N.am      5 UNK        -0.4135 
     20 C          27.2499   28.2761   -0.4137 C.2       4 UNK         0.5031 
     21 O          27.7129   29.3962   -0.6353 O.2       4 UNK        -0.5229 
     22 CA         25.7439   28.1048   -0.1648 C.3       4 UNK         0.0329 
     23 CB         24.9283   29.3709   -0.5033 C.3       4 UNK        -0.2001 
     24 N          25.2331   26.9535   -0.9078 N.am      4 UNK        -0.4303 
     25 C          24.1231   26.2702   -0.6130 C.2       3 UNK         0.5044 
     26 O          23.4006   26.5181    0.3529 O.2       3 UNK        -0.5152 
     27 CA         23.7444   25.1139   -1.5538 C.3       3 UNK         0.0319 
     28 CB         23.3842   25.6179   -2.9664 C.3       3 UNK        -0.2001 
     29 N          24.7385   24.0351   -1.5936 N.am      3 UNK        -0.4354 
     30 C          25.9885   24.0529   -2.0758 C.2       2 UNK         0.4964 
     31 O          26.5227   25.0407   -2.5843 O.2       2 UNK        -0.5047 
     32 CA         26.7838   22.7453   -1.9061 C.3       2 UNK         0.0288 
     33 CB         27.9986   22.6602   -2.8488 C.3       2 UNK        -0.2113 
     34 N          27.2410   22.6082   -0.5239 N.am      2 UNK        -0.4145 
     35 C          26.4673   22.2634    0.5157 C.2       1 UNK         0.5006 
     36 O          25.2887   21.9183    0.3977 O.2       1 UNK        -0.5103 
     37 C          30.0114   27.5027    0.9713 C.2       5 UNK         0.5055 
     38 O          30.8678   28.3816    1.0792 O.2       5 UNK        -0.5220 
     39 N          29.4613   26.8732    2.0199 N.am      6 UNK        -0.4450 
     40 CA         29.8146   27.1259    3.4172 C.3       6 UNK         0.0367 
     41 CB         29.6117   25.8485    4.2469 C.3       6 UNK        -0.1929 
     42 C          29.0681   28.3404    3.9923 C.2       6 UNK         0.5070 
     43 O          28.4715   28.2560    5.0674 O.2       6 UNK        -0.5237 
     44 N          29.1180   29.4657    3.2714 N.am      7 UNK        -0.4739 
     45 CA         28.5474   30.7530    3.6653 C.3       7 UNK         0.0276 
     46 CB         28.2787   31.5877    2.4000 C.3       7 UNK        -0.1927 
     47 C          29.4593   31.4684    4.6800 C.2       7 UNK         0.5013 
     48 O          30.0279   32.5174    4.3683 O.2       7 UNK        -0.5193 
     49 N          29.6003   30.8583    5.8667 N.am      8 UNK        -0.4253 
     50 CA         30.3705   31.3074    7.0320 C.3       8 UNK         0.0242 
     51 CB         29.6213   32.4535    7.7492 C.3       8 UNK        -0.2000 
     52 C          31.8300   31.6470    6.6738 C.2       8 UNK         0.4948 
     53 O          32.6306   30.7339    6.4631 O.2       8 UNK        -0.5275 
     54 N          32.1348   32.9489    6.5716 N.am      9 UNK        -0.4246 
     55 CA         33.4365   33.5135    6.2054 C.3       9 UNK         0.0261 
     56 CB         33.3615   35.0462    6.2979 C.3       9 UNK        -0.1959 
     57 C          33.9638   33.0845    4.8233 C.2       9 UNK         0.5033 
     58 O          35.1705   33.1850    4.5975 O.2       9 UNK        -0.5390 
     59 N          33.0868   32.5819    3.9394 N.am      10 UNK        -0.4215 
     60 CA         33.4421   32.0022    2.6385 C.3       10 UNK         0.0240 
     61 CB         32.1620   31.5847    1.9007 C.3       10 UNK        -0.1982 
     62 C          34.4258   30.8167    2.7163 C.2       10 UNK         0.4970 
     63 O          35.1802   30.6105    1.7647 O.2       10 UNK        -0.4916 
     64 N          34.4280   30.0860    3.8404 N.am      11 UNK        -0.4279 
     65 CA         35.4178   29.0402    4.1453 C.3       11 UNK         0.1003 
     66 C          36.7828   29.5841    4.6639 C.2       11 UNK         0.5709 
     67 N          36.9648   30.8829    4.8749 N.am      11 UNK        -0.7358 
     68 O          37.7122   28.8058    4.8658 O.2       11 UNK        -0.4999 
     69 C69        34.8397   27.9586    5.0956 C.3       12 UNK        -0.0954 
     70 S70        33.4475   27.0566    4.3437 S.3       12 UNK        -0.2268 
     71 C71        34.3220   25.6557    3.5864 C.3       12 UNK         0.0203 
     72 H72        26.3602   26.5467    3.5449 H         1 UNK         0.0888 
     73 H73        24.8779   26.1018    2.6968 H         1 UNK         0.0888 
     74 H74        25.3629   25.2242    4.1507 H         1 UNK         0.0888 
     75 H75        25.8890   23.1486    3.4560 H         1 UNK         0.3017 
     76 H76        26.7896   21.4211    2.4304 H         1 UNK         0.0873 
     77 H77        29.0053   23.3241    1.4924 H         1 UNK         0.0745 
     78 H78        29.0382   21.5783    1.3171 H         1 UNK         0.0745 
     79 H79        31.5783   21.4661    4.1104 H         1 UNK         0.0705 
     80 H80        31.0864   20.9074    2.5359 H         1 UNK         0.0705 
     81 H81        32.7213   23.6041    4.3988 H         1 UNK         0.1334 
     82 H82        33.8733   25.7964    0.8951 H         1 UNK         0.1417 
     83 H83        31.1980   22.4663    0.5561 H         1 UNK         0.1562 
     84 H84        31.8954   23.5439   -1.4215 H         1 UNK         0.0748 
     85 H85        33.4757   24.2758   -1.3396 H         1 UNK         0.0748 
     86 H86        29.8847   25.0047   -0.2144 H         1 UNK         0.0940 
     87 H87        29.4380   25.4974   -1.8276 H         1 UNK         0.0940 
     88 H88        29.7731   27.9291   -1.1100 H         1 UNK         0.0703 
     89 H89        27.5404   26.3007   -0.0794 H         1 UNK         0.3081 
     90 H90        25.6359   27.9037    0.9031 H         1 UNK         0.0719 
     91 H91        25.2867   30.2321    0.0622 H         1 UNK         0.0809 
     92 H92        24.9994   29.6203   -1.5625 H         1 UNK         0.0809 
     93 H93        23.8735   29.2462   -0.2585 H         1 UNK         0.0809 
     94 H94        25.7985   26.6200   -1.6852 H         1 UNK         0.2990 
     95 H95        22.8429   24.6603   -1.1384 H         1 UNK         0.0690 
     96 H96        22.5910   26.3653   -2.9201 H         1 UNK         0.0788 
     97 H97        23.0246   24.8037   -3.5955 H         1 UNK         0.0788 
     98 H98        24.2324   26.0798   -3.4721 H         1 UNK         0.0788 
     99 H99        24.4651   23.1907   -1.1020 H         1 UNK         0.2993 
    100 H100       26.1181   21.9133   -2.1477 H         1 UNK         0.0949 
    101 H101       28.4951   21.6932   -2.7663 H         1 UNK         0.0767 
    102 H102       27.6921   22.7781   -3.8891 H         1 UNK         0.0767 
    103 H103       28.7375   23.4326   -2.6382 H         1 UNK         0.0767 
    104 H104       28.1781   22.9261   -0.3317 H         1 UNK         0.3013 
    105 H105       28.7086   26.2104    1.8508 H         1 UNK         0.3121 
    106 H106       30.8730   27.3742    3.4586 H         1 UNK         0.0774 
    107 H107       28.5656   25.5515    4.2999 H         1 UNK         0.0815 
    108 H108       30.1774   25.0207    3.8246 H         1 UNK         0.0815 
    109 H109       29.9642   25.9881    5.2694 H         1 UNK         0.0815 
    110 H110       29.6665   29.4471    2.4181 H         1 UNK         0.2987 
    111 H111       27.5868   30.5826    4.1569 H         1 UNK         0.0949 
    112 H112       27.8594   32.5617    2.6554 H         1 UNK         0.0806 
    113 H113       29.1882   31.7634    1.8264 H         1 UNK         0.0806 
    114 H114       27.5645   31.0903    1.7433 H         1 UNK         0.0806 
    115 H115       29.1458   29.9547    5.9619 H         1 UNK         0.3010 
    116 H116       30.4170   30.4619    7.7201 H         1 UNK         0.0829 
    117 H117       29.4406   33.3071    7.0947 H         1 UNK         0.0813 
    118 H118       28.6515   32.1137    8.1128 H         1 UNK         0.0813 
    119 H119       30.1782   32.8084    8.6177 H         1 UNK         0.0813 
    120 H120       31.3876   33.6118    6.7202 H         1 UNK         0.3038 
    121 H121       34.1598   33.1605    6.9433 H         1 UNK         0.0769 
    122 H122       32.6295   35.4565    5.6010 H         1 UNK         0.0811 
    123 H123       34.3254   35.4999    6.0622 H         1 UNK         0.0811 
    124 H124       33.0909   35.3720    7.3024 H         1 UNK         0.0811 
    125 H125       32.1041   32.5599    4.1960 H         1 UNK         0.3204 
    126 H126       33.9299   32.7877    2.0577 H         1 UNK         0.0748 
    127 H127       32.3907   31.1741    0.9160 H         1 UNK         0.0771 
    128 H128       31.6157   30.8185    2.4511 H         1 UNK         0.0771 
    129 H129       31.4974   32.4355    1.7511 H         1 UNK         0.0771 
    130 H130       33.7852   30.3201    4.5874 H         1 UNK         0.2980 
    131 H131       35.6619   28.5356    3.2087 H         1 UNK         0.0545 
    132 H132       37.8629   31.1995    5.2033 H         1 UNK         0.3459 
    133 H133       36.2307   31.5618    4.7004 H         1 UNK         0.3459 
    134 H134       34.4924   28.4166    6.0235 H         1 UNK         0.0616 
    135 H135       35.6027   27.2327    5.3828 H         1 UNK         0.0616 
    136 H136       35.1425   26.0327    2.9738 H         1 UNK         0.0634 
    137 H137       34.7773   25.0498    4.3713 H         1 UNK         0.0634 
@<TRIPOS>BOND
     1    1    2 1    
     2    1   72 1    
     3    1   73 1    
     4    1   74 1    
     5    2    3 2    
     6    2    4 am   BACKBONE|DICT|INTERRES
     7    4    5 1    
     8    4   75 1    
     9    5    6 1    
    10    5   35 1    
    11    5   76 1    
    12    6    7 1    
    13    6   77 1    
    14    6   78 1    
    15    7    8 1    
    16    8    9 1    
    17    8   79 1    
    18    8   80 1    
    19    9   10 ar   
    20    9   14 ar   
    21   10   11 ar   
    22   10   81 1    
    23   11   12 ar   
    24   11   71 1    
    25   12   13 ar   
    26   12   82 1    
    27   13   14 ar   
    28   13   15 1    
    29   14   83 1    
    30   15   16 1    
    31   15   84 1    
    32   15   85 1    
    33   16   17 1    
    34   17   18 1    
    35   17   86 1    
    36   17   87 1    
    37   18   19 1    
    38   18   37 1    
    39   18   88 1    
    40   19   20 am   BACKBONE|DICT|INTERRES
    41   19   89 1    
    42   20   21 2    
    43   20   22 1    
    44   22   23 1    
    45   22   24 1    
    46   22   90 1    
    47   23   91 1    
    48   23   92 1    
    49   23   93 1    
    50   24   25 am   BACKBONE|DICT|INTERRES
    51   24   94 1    
    52   25   26 2    
    53   25   27 1    
    54   27   28 1    
    55   27   29 1    
    56   27   95 1    
    57   28   96 1    
    58   28   97 1    
    59   28   98 1    
    60   29   30 am   BACKBONE|DICT|INTERRES
    61   29   99 1    
    62   30   31 2    
    63   30   32 1    
    64   32   33 1    
    65   32   34 1    
    66   32  100 1    
    67   33  101 1    
    68   33  102 1    
    69   33  103 1    
    70   34   35 am   BACKBONE|DICT|INTERRES
    71   34  104 1    
    72   35   36 2    
    73   37   38 2    
    74   37   39 am   BACKBONE|DICT|INTERRES
    75   39   40 1    
    76   39  105 1    
    77   40   41 1    
    78   40   42 1    
    79   40  106 1    
    80   41  107 1    
    81   41  108 1    
    82   41  109 1    
    83   42   43 2    
    84   42   44 am   BACKBONE|DICT|INTERRES
    85   44   45 1    
    86   44  110 1    
    87   45   46 1    
    88   45   47 1    
    89   45  111 1    
    90   46  112 1    
    91   46  113 1    
    92   46  114 1    
    93   47   48 2    
    94   47   49 am   BACKBONE|DICT|INTERRES
    95   49   50 1    
    96   49  115 1    
    97   50   51 1    
    98   50   52 1    
    99   50  116 1    
   100   51  117 1    
   101   51  118 1    
   102   51  119 1    
   103   52   53 2    
   104   52   54 am   BACKBONE|DICT|INTERRES
   105   54   55 1    
   106   54  120 1    
   107   55   56 1    
   108   55   57 1    
   109   55  121 1    
   110   56  122 1    
   111   56  123 1    
   112   56  124 1    
   113   57   58 2    
   114   57   59 am   BACKBONE|DICT|INTERRES
   115   59   60 1    
   116   59  125 1    
   117   60   61 1    
   118   60   62 1    
   119   60  126 1    
   120   61  127 1    
   121   61  128 1    
   122   61  129 1    
   123   62   63 2    
   124   62   64 am   BACKBONE|DICT|INTERRES
   125   64   65 1    
   126   64  130 1    
   127   65   66 1    
   128   65   69 1    
   129   65  131 1    
   130   66   67 am   BACKBONE|DICT|INTERRES
   131   66   68 2    
   132   67  132 1    
   133   67  133 1    
   134   69   70 1    
   135   69  134 1    
   136   69  135 1    
   137   70   71 1    
   138   71  136 1    
   139   71  137 1    
@<TRIPOS>SUBSTRUCTURE
     1 UNK         1 GROUP             0       ****    0 ROOT    
