@<TRIPOS>MOLECULE
3R136
137   139    1
SMALL
USER_CHARGES


@<TRIPOS>ATOM
      1 CA         25.7822   22.0509    4.7058 C.3       0 UNK        -0.1979 
      2 C          26.5302   23.0600    3.8478 C.2       0 UNK         0.4864 
      3 O          26.9434   24.1023    4.3563 O.2       0 UNK        -0.5359 
      4 N          26.6834   22.7674    2.5483 N.am      1 UNK        -0.4318 
      5 CA         27.4099   23.5257    1.5139 C.3       1 UNK         0.0824 
      6 C6         28.9250   23.6852    1.7968 C.3       12 UNK        -0.0944 
      7 S7         29.8003   22.0882    1.7648 S.3       12 UNK        -0.2672 
      8 C8         31.4158   22.5581    2.4753 C.3       12 UNK         0.0333 
      9 C9         32.1868   23.6234    1.6928 C.ar      12 UNK        -0.0807 
     10 C10        33.0229   24.5001    2.3915 C.ar      12 UNK        -0.0894 
     11 C11        33.7553   25.4838    1.7203 C.ar      12 UNK        -0.0804 
     12 C12        33.6484   25.5893    0.3300 C.ar      12 UNK        -0.0824 
     13 C13        32.8273   24.7135   -0.3875 C.ar      12 UNK        -0.0762 
     14 C14        32.1081   23.7282    0.2975 C.ar      12 UNK        -0.0782 
     15 C15        32.7492   24.8071   -1.9065 C.3       12 UNK         0.0230 
     16 S16        31.8062   26.2594   -2.4719 S.3       12 UNK        -0.2608 
     17 C17        30.0999   25.7890   -2.0246 C.3       12 UNK        -0.0989 
     18 CA         29.1044   26.9830   -2.0797 C.3       5 UNK         0.0716 
     19 N          27.7379   26.5147   -2.2931 N.am      5 UNK        -0.4135 
     20 C          27.1198   26.4085   -3.4720 C.2       4 UNK         0.5031 
     21 O          27.6358   26.7378   -4.5414 O.2       4 UNK        -0.5229 
     22 CA         25.6975   25.8236   -3.4907 C.3       4 UNK         0.0329 
     23 CB         25.7372   24.3417   -3.9029 C.3       4 UNK        -0.2001 
     24 N          24.9857   25.9408   -2.2110 N.am      4 UNK        -0.4303 
     25 C          23.7224   26.3762   -2.0875 C.2       3 UNK         0.5044 
     26 O          23.0545   26.8079   -3.0286 O.2       3 UNK        -0.5152 
     27 CA         23.0559   26.2918   -0.6996 C.3       3 UNK         0.0319 
     28 CB         22.1299   25.0662   -0.6289 C.3       3 UNK        -0.2001 
     29 N          24.0010   26.2321    0.4155 N.am      3 UNK        -0.4354 
     30 C          24.7168   27.2705    0.8667 C.2       2 UNK         0.4964 
     31 O          24.6060   28.4148    0.4258 O.2       2 UNK        -0.5047 
     32 CA         25.7148   26.9968    2.0104 C.3       2 UNK         0.0288 
     33 CB         25.0725   27.3740    3.3561 C.3       2 UNK        -0.2113 
     34 N          26.2366   25.6253    2.1108 N.am      2 UNK        -0.4145 
     35 C          26.7844   24.8855    1.1370 C.2       1 UNK         0.5006 
     36 O          26.7911   25.2206   -0.0477 O.2       1 UNK        -0.5103 
     37 C          29.1372   27.8666   -0.8160 C.2       5 UNK         0.5055 
     38 O          28.0883   28.2532   -0.2939 O.2       5 UNK        -0.5220 
     39 N          30.3503   28.1821   -0.3535 N.am      6 UNK        -0.4450 
     40 CA         30.6207   28.8483    0.9180 C.3       6 UNK         0.0367 
     41 CB         32.0871   29.3110    0.9176 C.3       6 UNK        -0.1929 
     42 C          30.3504   27.9139    2.1108 C.2       6 UNK         0.5070 
     43 O          30.3286   26.6934    1.9505 O.2       6 UNK        -0.5237 
     44 N          30.1843   28.5066    3.2949 N.am      7 UNK        -0.4739 
     45 CA         30.0795   27.8090    4.5706 C.3       7 UNK         0.0276 
     46 CB         28.6406   27.3080    4.7835 C.3       7 UNK        -0.1927 
     47 C          30.4949   28.7764    5.6826 C.2       7 UNK         0.5013 
     48 O          30.3449   29.9919    5.5175 O.2       7 UNK        -0.5193 
     49 N          30.9810   28.2185    6.8002 N.am      8 UNK        -0.4253 
     50 CA         31.3937   28.9194    8.0220 C.3       8 UNK         0.0242 
     51 CB         30.1469   29.4016    8.8003 C.3       8 UNK        -0.2000 
     52 C          32.4286   30.0260    7.7331 C.2       8 UNK         0.4948 
     53 O          33.4813   29.7283    7.1668 O.2       8 UNK        -0.5275 
     54 N          32.1111   31.2763    8.0970 N.am      9 UNK        -0.4246 
     55 CA         32.9584   32.4573    7.9116 C.3       9 UNK         0.0261 
     56 CB         32.2898   33.6701    8.5787 C.3       9 UNK        -0.1959 
     57 C          33.3024   32.7748    6.4450 C.2       9 UNK         0.5033 
     58 O          34.3623   33.3525    6.1979 O.2       9 UNK        -0.5390 
     59 N          32.4409   32.3767    5.4948 N.am      10 UNK        -0.4215 
     60 CA         32.6705   32.5667    4.0578 C.3       10 UNK         0.0240 
     61 CB         31.3702   32.3119    3.2791 C.3       10 UNK        -0.1982 
     62 C          33.8229   31.7090    3.5025 C.2       10 UNK         0.4970 
     63 O          34.3738   32.0614    2.4592 O.2       10 UNK        -0.4916 
     64 N          34.1805   30.6243    4.2038 N.am      11 UNK        -0.4279 
     65 CA         35.3682   29.8068    3.9170 C.3       11 UNK         0.1003 
     66 C          36.7004   30.4400    4.4203 C.2       11 UNK         0.5709 
     67 N          36.6920   31.5539    5.1461 N.am      11 UNK        -0.7358 
     68 O          37.7731   29.9147    4.1314 O.2       11 UNK        -0.4999 
     69 C69        35.2037   28.3543    4.4354 C.3       12 UNK        -0.0954 
     70 S70        33.8046   27.4833    3.6547 S.3       12 UNK        -0.2268 
     71 C71        34.6945   26.3974    2.4964 C.3       12 UNK         0.0203 
     72 H72        24.8969   22.5128    5.1421 H         1 UNK         0.0888 
     73 H73        25.4636   21.1815    4.1309 H         1 UNK         0.0888 
     74 H74        26.4214   21.7046    5.5175 H         1 UNK         0.0888 
     75 H75        26.2859   21.9008    2.2131 H         1 UNK         0.3017 
     76 H76        27.3170   22.9192    0.6111 H         1 UNK         0.0873 
     77 H77        29.0983   24.1797    2.7543 H         1 UNK         0.0745 
     78 H78        29.3900   24.3223    1.0429 H         1 UNK         0.0745 
     79 H79        32.0367   21.6641    2.5436 H         1 UNK         0.0705 
     80 H80        31.2469   22.8957    3.4993 H         1 UNK         0.0705 
     81 H81        33.1080   24.4199    3.4667 H         1 UNK         0.1334 
     82 H82        34.2148   26.3430   -0.1999 H         1 UNK         0.1417 
     83 H83        31.4842   23.0430   -0.2591 H         1 UNK         0.1562 
     84 H84        32.3084   23.9040   -2.3318 H         1 UNK         0.0748 
     85 H85        33.7605   24.8686   -2.3111 H         1 UNK         0.0748 
     86 H86        30.0829   25.3150   -1.0416 H         1 UNK         0.0940 
     87 H87        29.7954   25.0147   -2.7310 H         1 UNK         0.0940 
     88 H88        29.3783   27.6376   -2.9100 H         1 UNK         0.0703 
     89 H89        27.2617   26.2298   -1.4398 H         1 UNK         0.3081 
     90 H90        25.1621   26.3736   -4.2673 H         1 UNK         0.0719 
     91 H91        26.2553   24.2117   -4.8541 H         1 UNK         0.0809 
     92 H92        26.2555   23.7324   -3.1613 H         1 UNK         0.0809 
     93 H93        24.7319   23.9381   -4.0253 H         1 UNK         0.0809 
     94 H94        25.4756   25.6214   -1.3802 H         1 UNK         0.2990 
     95 H95        22.4417   27.1870   -0.5791 H         1 UNK         0.0690 
     96 H96        21.3850   25.0928   -1.4256 H         1 UNK         0.0788 
     97 H97        21.5880   25.0312    0.3165 H         1 UNK         0.0788 
     98 H98        22.6855   24.1333   -0.7341 H         1 UNK         0.0788 
     99 H99        24.1489   25.3297    0.8430 H         1 UNK         0.2993 
    100 H100       26.5758   27.6473    1.8452 H         1 UNK         0.0949 
    101 H101       25.7705   27.2534    4.1835 H         1 UNK         0.0767 
    102 H102       24.7469   28.4153    3.3566 H         1 UNK         0.0767 
    103 H103       24.1981   26.7575    3.5687 H         1 UNK         0.0767 
    104 H104       26.3237   25.2428    3.0504 H         1 UNK         0.3013 
    105 H105       31.1455   27.7669   -0.8216 H         1 UNK         0.3121 
    106 H106       29.9693   29.7207    1.0034 H         1 UNK         0.0774 
    107 H107       32.7719   28.4730    0.7828 H         1 UNK         0.0815 
    108 H108       32.2782   30.0343    0.1250 H         1 UNK         0.0815 
    109 H109       32.3506   29.7869    1.8609 H         1 UNK         0.0815 
    110 H110       30.2307   29.5135    3.3817 H         1 UNK         0.2987 
    111 H111       30.7684   26.9607    4.5691 H         1 UNK         0.0949 
    112 H112       28.5420   26.7811    5.7332 H         1 UNK         0.0806 
    113 H113       27.9294   28.1345    4.7903 H         1 UNK         0.0806 
    114 H114       28.3423   26.6123    3.9990 H         1 UNK         0.0806 
    115 H115       31.0965   27.2149    6.8192 H         1 UNK         0.3010 
    116 H116       31.9077   28.1846    8.6436 H         1 UNK         0.0829 
    117 H117       29.5642   30.1314    8.2365 H         1 UNK         0.0813 
    118 H118       29.4854   28.5656    9.0284 H         1 UNK         0.0813 
    119 H119       30.4220   29.8526    9.7548 H         1 UNK         0.0813 
    120 H120       31.2138   31.4277    8.5347 H         1 UNK         0.3038 
    121 H121       33.9019   32.2626    8.4260 H         1 UNK         0.0769 
    122 H122       31.3230   33.8975    8.1276 H         1 UNK         0.0811 
    123 H123       32.9119   34.5611    8.4814 H         1 UNK         0.0811 
    124 H124       32.1338   33.5026    9.6446 H         1 UNK         0.0811 
    125 H125       31.6151   31.8530    5.7633 H         1 UNK         0.3204 
    126 H126       32.9489   33.6116    3.9040 H         1 UNK         0.0748 
    127 H127       30.5612   32.9500    3.6352 H         1 UNK         0.0771 
    128 H128       31.5049   32.5219    2.2171 H         1 UNK         0.0771 
    129 H129       31.0445   31.2774    3.3648 H         1 UNK         0.0771 
    130 H130       33.7008   30.4073    5.0688 H         1 UNK         0.2980 
    131 H131       35.4731   29.7446    2.8321 H         1 UNK         0.0545 
    132 H132       37.5696   31.9429    5.4516 H         1 UNK         0.3459 
    133 H133       35.8266   32.0184    5.3906 H         1 UNK         0.3459 
    134 H134       35.0484   28.3505    5.5150 H         1 UNK         0.0616 
    135 H135       36.1140   27.7767    4.2651 H         1 UNK         0.0616 
    136 H136       35.2829   27.0154    1.8164 H         1 UNK         0.0634 
    137 H137       35.4036   25.7822    3.0521 H         1 UNK         0.0634 
@<TRIPOS>BOND
     1    1    2 1    
     2    1   72 1    
     3    1   73 1    
     4    1   74 1    
     5    2    3 2    
     6    2    4 am   BACKBONE|DICT|INTERRES
     7    4    5 1    
     8    4   75 1    
     9    5    6 1    
    10    5   35 1    
    11    5   76 1    
    12    6    7 1    
    13    6   77 1    
    14    6   78 1    
    15    7    8 1    
    16    8    9 1    
    17    8   79 1    
    18    8   80 1    
    19    9   10 ar   
    20    9   14 ar   
    21   10   11 ar   
    22   10   81 1    
    23   11   12 ar   
    24   11   71 1    
    25   12   13 ar   
    26   12   82 1    
    27   13   14 ar   
    28   13   15 1    
    29   14   83 1    
    30   15   16 1    
    31   15   84 1    
    32   15   85 1    
    33   16   17 1    
    34   17   18 1    
    35   17   86 1    
    36   17   87 1    
    37   18   19 1    
    38   18   37 1    
    39   18   88 1    
    40   19   20 am   BACKBONE|DICT|INTERRES
    41   19   89 1    
    42   20   21 2    
    43   20   22 1    
    44   22   23 1    
    45   22   24 1    
    46   22   90 1    
    47   23   91 1    
    48   23   92 1    
    49   23   93 1    
    50   24   25 am   BACKBONE|DICT|INTERRES
    51   24   94 1    
    52   25   26 2    
    53   25   27 1    
    54   27   28 1    
    55   27   29 1    
    56   27   95 1    
    57   28   96 1    
    58   28   97 1    
    59   28   98 1    
    60   29   30 am   BACKBONE|DICT|INTERRES
    61   29   99 1    
    62   30   31 2    
    63   30   32 1    
    64   32   33 1    
    65   32   34 1    
    66   32  100 1    
    67   33  101 1    
    68   33  102 1    
    69   33  103 1    
    70   34   35 am   BACKBONE|DICT|INTERRES
    71   34  104 1    
    72   35   36 2    
    73   37   38 2    
    74   37   39 am   BACKBONE|DICT|INTERRES
    75   39   40 1    
    76   39  105 1    
    77   40   41 1    
    78   40   42 1    
    79   40  106 1    
    80   41  107 1    
    81   41  108 1    
    82   41  109 1    
    83   42   43 2    
    84   42   44 am   BACKBONE|DICT|INTERRES
    85   44   45 1    
    86   44  110 1    
    87   45   46 1    
    88   45   47 1    
    89   45  111 1    
    90   46  112 1    
    91   46  113 1    
    92   46  114 1    
    93   47   48 2    
    94   47   49 am   BACKBONE|DICT|INTERRES
    95   49   50 1    
    96   49  115 1    
    97   50   51 1    
    98   50   52 1    
    99   50  116 1    
   100   51  117 1    
   101   51  118 1    
   102   51  119 1    
   103   52   53 2    
   104   52   54 am   BACKBONE|DICT|INTERRES
   105   54   55 1    
   106   54  120 1    
   107   55   56 1    
   108   55   57 1    
   109   55  121 1    
   110   56  122 1    
   111   56  123 1    
   112   56  124 1    
   113   57   58 2    
   114   57   59 am   BACKBONE|DICT|INTERRES
   115   59   60 1    
   116   59  125 1    
   117   60   61 1    
   118   60   62 1    
   119   60  126 1    
   120   61  127 1    
   121   61  128 1    
   122   61  129 1    
   123   62   63 2    
   124   62   64 am   BACKBONE|DICT|INTERRES
   125   64   65 1    
   126   64  130 1    
   127   65   66 1    
   128   65   69 1    
   129   65  131 1    
   130   66   67 am   BACKBONE|DICT|INTERRES
   131   66   68 2    
   132   67  132 1    
   133   67  133 1    
   134   69   70 1    
   135   69  134 1    
   136   69  135 1    
   137   70   71 1    
   138   71  136 1    
   139   71  137 1    
@<TRIPOS>SUBSTRUCTURE
     1 UNK         1 GROUP             0       ****    0 ROOT    
