@<TRIPOS>MOLECULE
3R136
137   139    1
SMALL
USER_CHARGES


@<TRIPOS>ATOM
      1 CA         25.3568   21.8615    0.5736 C.3       0 UNK        -0.1979 
      2 C          26.4123   22.5173    1.4508 C.2       0 UNK         0.4864 
      3 O          26.0674   23.1645    2.4410 O.2       0 UNK        -0.5359 
      4 N          27.6931   22.3704    1.0812 N.am      1 UNK        -0.4318 
      5 CA         28.8720   22.9217    1.7617 C.3       1 UNK         0.0824 
      6 C6         29.1800   22.2036    3.1113 C.3       12 UNK        -0.0944 
      7 S7         30.9638   21.9405    3.3789 S.3       12 UNK        -0.2672 
      8 C8         31.5274   23.5072    4.1207 C.3       12 UNK         0.0333 
      9 C9         32.5317   24.2066    3.2152 C.ar      12 UNK        -0.0807 
     10 C10        33.8215   23.6862    3.0911 C.ar      12 UNK        -0.0894 
     11 C11        34.7731   24.3177    2.2860 C.ar      12 UNK        -0.0804 
     12 C12        34.4205   25.4716    1.5790 C.ar      12 UNK        -0.0824 
     13 C13        33.1354   26.0111    1.7026 C.ar      12 UNK        -0.0762 
     14 C14        32.1976   25.3753    2.5235 C.ar      12 UNK        -0.0782 
     15 C15        32.7696   27.3050    0.9898 C.3       12 UNK         0.0230 
     16 S16        31.4950   27.0443   -0.2832 S.3       12 UNK        -0.2608 
     17 C17        30.3583   28.4188    0.1000 C.3       12 UNK        -0.0989 
     18 CA         29.2203   28.5692   -0.9427 C.3       5 UNK         0.0716 
     19 N          28.3954   27.3582   -1.0320 N.am      5 UNK        -0.4135 
     20 C          27.6454   26.9982   -2.0824 C.2       4 UNK         0.5031 
     21 O          27.6277   27.6040   -3.1538 O.2       4 UNK        -0.5229 
     22 CA         26.6951   25.8054   -1.8734 C.3       4 UNK         0.0329 
     23 CB         27.3910   24.4721   -2.1922 C.3       4 UNK        -0.2001 
     24 N          26.1454   25.7756   -0.5134 N.am      4 UNK        -0.4303 
     25 C          25.2501   26.6580   -0.0426 C.2       3 UNK         0.5044 
     26 O          24.7489   27.5499   -0.7266 O.2       3 UNK        -0.5152 
     27 CA         24.8953   26.5721    1.4519 C.3       3 UNK         0.0319 
     28 CB         23.7359   25.5916    1.6855 C.3       3 UNK        -0.2001 
     29 N          26.0451   26.1985    2.2804 N.am      3 UNK        -0.4354 
     30 C          27.0959   27.0063    2.4954 C.2       2 UNK         0.4964 
     31 O          27.1722   28.1507    2.0551 O.2       2 UNK        -0.5047 
     32 CA         28.2919   26.4367    3.2740 C.3       2 UNK         0.0288 
     33 CB         28.1445   26.6989    4.7799 C.3       2 UNK        -0.2113 
     34 N          28.5039   25.0083    3.0399 N.am      2 UNK        -0.4145 
     35 C          28.7720   24.4598    1.8461 C.2       1 UNK         0.5006 
     36 O          28.8815   25.1218    0.8140 O.2       1 UNK        -0.5103 
     37 C          28.3918   29.8520   -0.6738 C.2       5 UNK         0.5055 
     38 O          28.9920   30.9076   -0.4693 O.2       5 UNK        -0.5220 
     39 N          27.0504   29.7645   -0.6546 N.am      6 UNK        -0.4450 
     40 CA         26.0875   30.8577   -0.4540 C.3       6 UNK         0.0367 
     41 CB         26.0905   31.8057   -1.6719 C.3       6 UNK        -0.1929 
     42 C          26.2650   31.6069    0.8835 C.2       6 UNK         0.5070 
     43 O          26.0509   32.8186    0.9443 O.2       6 UNK        -0.5237 
     44 N          26.6694   30.8674    1.9259 N.am      7 UNK        -0.4739 
     45 CA         26.9761   31.3096    3.2904 C.3       7 UNK         0.0276 
     46 CB         25.7185   31.8720    3.9863 C.3       7 UNK        -0.1927 
     47 C          28.1881   32.2577    3.3953 C.2       7 UNK         0.5013 
     48 O          28.3417   32.9186    4.4241 O.2       7 UNK        -0.5193 
     49 N          29.0412   32.3052    2.3594 N.am      8 UNK        -0.4253 
     50 CA         30.2488   33.1361    2.3315 C.3       8 UNK         0.0242 
     51 CB         30.7685   33.2458    0.8895 C.3       8 UNK        -0.2000 
     52 C          31.3620   32.6242    3.2615 C.2       8 UNK         0.4948 
     53 O          32.1408   33.4366    3.7628 O.2       8 UNK        -0.5275 
     54 N          31.4242   31.3038    3.4744 N.am      9 UNK        -0.4246 
     55 CA         32.4037   30.6215    4.3138 C.3       9 UNK         0.0261 
     56 CB         33.7831   30.6046    3.6197 C.3       9 UNK        -0.1959 
     57 C          31.9250   29.1907    4.5821 C.2       9 UNK         0.5033 
     58 O          31.0451   28.6936    3.8746 O.2       9 UNK        -0.5390 
     59 N          32.5664   28.5463    5.5611 N.am      10 UNK        -0.4215 
     60 CA         32.4874   27.1121    5.8394 C.3       10 UNK         0.0240 
     61 CB         31.7202   26.8788    7.1542 C.3       10 UNK        -0.1982 
     62 C          33.9260   26.5659    5.8651 C.2       10 UNK         0.4970 
     63 O          34.3445   25.9495    6.8462 O.2       10 UNK        -0.4916 
     64 N          34.6671   26.8739    4.7932 N.am      11 UNK        -0.4279 
     65 CA         36.1215   26.7228    4.6426 C.3       11 UNK         0.1003 
     66 C          36.9460   27.6575    5.5788 C.2       11 UNK         0.5709 
     67 N          38.2642   27.5123    5.6086 N.am      11 UNK        -0.7358 
     68 O          36.4138   28.5485    6.2399 O.2       11 UNK        -0.4999 
     69 C69        36.5965   25.2325    4.6385 C.3       12 UNK        -0.0954 
     70 S70        37.4166   24.8114    3.0604 S.3       12 UNK        -0.2268 
     71 C71        36.1882   23.7587    2.2133 C.3       12 UNK         0.0203 
     72 H72        25.7991   21.1917   -0.1635 H         1 UNK         0.0888 
     73 H73        24.6684   21.2804    1.1866 H         1 UNK         0.0888 
     74 H74        24.7837   22.6205    0.0423 H         1 UNK         0.0888 
     75 H75        27.8982   21.8455    0.2422 H         1 UNK         0.3017 
     76 H76        29.6989   22.7241    1.0771 H         1 UNK         0.0873 
     77 H77        28.7205   22.6654    3.9853 H         1 UNK         0.0745 
     78 H78        28.7503   21.2007    3.0859 H         1 UNK         0.0745 
     79 H79        30.6871   24.1597    4.3531 H         1 UNK         0.0705 
     80 H80        32.0040   23.2874    5.0773 H         1 UNK         0.0705 
     81 H81        34.0876   22.7920    3.6383 H         1 UNK         0.1334 
     82 H82        35.1583   25.9628    0.9594 H         1 UNK         0.1417 
     83 H83        31.2125   25.8058    2.6250 H         1 UNK         0.1562 
     84 H84        33.6456   27.7551    0.5203 H         1 UNK         0.0748 
     85 H85        32.4209   28.0241    1.7302 H         1 UNK         0.0748 
     86 H86        30.9561   29.3314    0.1500 H         1 UNK         0.0940 
     87 H87        29.9462   28.2692    1.0993 H         1 UNK         0.0940 
     88 H88        29.6904   28.7210   -1.9166 H         1 UNK         0.0703 
     89 H89        28.4242   26.7385   -0.2277 H         1 UNK         0.3081 
     90 H90        25.8615   25.9216   -2.5696 H         1 UNK         0.0719 
     91 H91        28.2606   24.2995   -1.5585 H         1 UNK         0.0809 
     92 H92        26.7110   23.6293   -2.0685 H         1 UNK         0.0809 
     93 H93        27.7391   24.4571   -3.2258 H         1 UNK         0.0809 
     94 H94        26.5629   25.1210    0.1321 H         1 UNK         0.2990 
     95 H95        24.5626   27.5635    1.7680 H         1 UNK         0.0690 
     96 H96        23.4491   25.5604    2.7368 H         1 UNK         0.0788 
     97 H97        23.9904   24.5778    1.3783 H         1 UNK         0.0788 
     98 H98        22.8538   25.8911    1.1180 H         1 UNK         0.0788 
     99 H99        26.0684   25.2464    2.6329 H         1 UNK         0.2993 
    100 H100       29.1809   26.9652    2.9269 H         1 UNK         0.0949 
    101 H101       27.2811   26.1816    5.2003 H         1 UNK         0.0767 
    102 H102       29.0320   26.3770    5.3250 H         1 UNK         0.0767 
    103 H103       28.0180   27.7646    4.9766 H         1 UNK         0.0767 
    104 H104       28.3495   24.3937    3.8254 H         1 UNK         0.3013 
    105 H105       26.6341   28.8526   -0.7906 H         1 UNK         0.3121 
    106 H106       25.1040   30.3882   -0.4045 H         1 UNK         0.0774 
    107 H107       27.0289   32.3553   -1.7530 H         1 UNK         0.0815 
    108 H108       25.2882   32.5409   -1.5989 H         1 UNK         0.0815 
    109 H109       25.9409   31.2570   -2.6017 H         1 UNK         0.0815 
    110 H110       26.8276   29.8712    1.7696 H         1 UNK         0.2987 
    111 H111       27.2685   30.4070    3.8296 H         1 UNK         0.0949 
    112 H112       25.4045   32.8212    3.5514 H         1 UNK         0.0806 
    113 H113       24.8822   31.1765    3.9161 H         1 UNK         0.0806 
    114 H114       25.9021   32.0474    5.0470 H         1 UNK         0.0806 
    115 H115       28.8404   31.7588    1.5288 H         1 UNK         0.3010 
    116 H116       29.9743   34.1385    2.6675 H         1 UNK         0.0829 
    117 H117       29.9999   33.6274    0.2169 H         1 UNK         0.0813 
    118 H118       31.6183   33.9273    0.8326 H         1 UNK         0.0813 
    119 H119       31.1003   32.2803    0.5056 H         1 UNK         0.0813 
    120 H120       30.7294   30.6893    3.0677 H         1 UNK         0.3038 
    121 H121       32.4746   31.1469    5.2687 H         1 UNK         0.0769 
    122 H122       34.5300   30.0905    4.2259 H         1 UNK         0.0811 
    123 H123       34.1589   31.6133    3.4491 H         1 UNK         0.0811 
    124 H124       33.7402   30.0999    2.6538 H         1 UNK         0.0811 
    125 H125       33.2867   29.0420    6.0707 H         1 UNK         0.3204 
    126 H126       31.9562   26.5961    5.0385 H         1 UNK         0.0748 
    127 H127       32.2210   27.3463    8.0029 H         1 UNK         0.0771 
    128 H128       30.7099   27.2842    7.0978 H         1 UNK         0.0771 
    129 H129       31.6312   25.8134    7.3701 H         1 UNK         0.0771 
    130 H130       34.2158   27.3734    4.0427 H         1 UNK         0.2980 
    131 H131       36.2983   27.1498    3.6549 H         1 UNK         0.0545 
    132 H132       38.8127   28.1225    6.1939 H         1 UNK         0.3459 
    133 H133       38.7184   26.8056    5.0508 H         1 UNK         0.3459 
    134 H134       37.2932   25.0200    5.4507 H         1 UNK         0.0616 
    135 H135       35.7693   24.5460    4.8141 H         1 UNK         0.0616 
    136 H136       36.2290   22.7596    2.6498 H         1 UNK         0.0634 
    137 H137       36.4799   23.6465    1.1683 H         1 UNK         0.0634 
@<TRIPOS>BOND
     1    1    2 1    
     2    1   72 1    
     3    1   73 1    
     4    1   74 1    
     5    2    3 2    
     6    2    4 am   BACKBONE|DICT|INTERRES
     7    4    5 1    
     8    4   75 1    
     9    5    6 1    
    10    5   35 1    
    11    5   76 1    
    12    6    7 1    
    13    6   77 1    
    14    6   78 1    
    15    7    8 1    
    16    8    9 1    
    17    8   79 1    
    18    8   80 1    
    19    9   10 ar   
    20    9   14 ar   
    21   10   11 ar   
    22   10   81 1    
    23   11   12 ar   
    24   11   71 1    
    25   12   13 ar   
    26   12   82 1    
    27   13   14 ar   
    28   13   15 1    
    29   14   83 1    
    30   15   16 1    
    31   15   84 1    
    32   15   85 1    
    33   16   17 1    
    34   17   18 1    
    35   17   86 1    
    36   17   87 1    
    37   18   19 1    
    38   18   37 1    
    39   18   88 1    
    40   19   20 am   BACKBONE|DICT|INTERRES
    41   19   89 1    
    42   20   21 2    
    43   20   22 1    
    44   22   23 1    
    45   22   24 1    
    46   22   90 1    
    47   23   91 1    
    48   23   92 1    
    49   23   93 1    
    50   24   25 am   BACKBONE|DICT|INTERRES
    51   24   94 1    
    52   25   26 2    
    53   25   27 1    
    54   27   28 1    
    55   27   29 1    
    56   27   95 1    
    57   28   96 1    
    58   28   97 1    
    59   28   98 1    
    60   29   30 am   BACKBONE|DICT|INTERRES
    61   29   99 1    
    62   30   31 2    
    63   30   32 1    
    64   32   33 1    
    65   32   34 1    
    66   32  100 1    
    67   33  101 1    
    68   33  102 1    
    69   33  103 1    
    70   34   35 am   BACKBONE|DICT|INTERRES
    71   34  104 1    
    72   35   36 2    
    73   37   38 2    
    74   37   39 am   BACKBONE|DICT|INTERRES
    75   39   40 1    
    76   39  105 1    
    77   40   41 1    
    78   40   42 1    
    79   40  106 1    
    80   41  107 1    
    81   41  108 1    
    82   41  109 1    
    83   42   43 2    
    84   42   44 am   BACKBONE|DICT|INTERRES
    85   44   45 1    
    86   44  110 1    
    87   45   46 1    
    88   45   47 1    
    89   45  111 1    
    90   46  112 1    
    91   46  113 1    
    92   46  114 1    
    93   47   48 2    
    94   47   49 am   BACKBONE|DICT|INTERRES
    95   49   50 1    
    96   49  115 1    
    97   50   51 1    
    98   50   52 1    
    99   50  116 1    
   100   51  117 1    
   101   51  118 1    
   102   51  119 1    
   103   52   53 2    
   104   52   54 am   BACKBONE|DICT|INTERRES
   105   54   55 1    
   106   54  120 1    
   107   55   56 1    
   108   55   57 1    
   109   55  121 1    
   110   56  122 1    
   111   56  123 1    
   112   56  124 1    
   113   57   58 2    
   114   57   59 am   BACKBONE|DICT|INTERRES
   115   59   60 1    
   116   59  125 1    
   117   60   61 1    
   118   60   62 1    
   119   60  126 1    
   120   61  127 1    
   121   61  128 1    
   122   61  129 1    
   123   62   63 2    
   124   62   64 am   BACKBONE|DICT|INTERRES
   125   64   65 1    
   126   64  130 1    
   127   65   66 1    
   128   65   69 1    
   129   65  131 1    
   130   66   67 am   BACKBONE|DICT|INTERRES
   131   66   68 2    
   132   67  132 1    
   133   67  133 1    
   134   69   70 1    
   135   69  134 1    
   136   69  135 1    
   137   70   71 1    
   138   71  136 1    
   139   71  137 1    
@<TRIPOS>SUBSTRUCTURE
     1 UNK         1 GROUP             0       ****    0 ROOT    
