@<TRIPOS>MOLECULE
3R136
137   139    1
SMALL
USER_CHARGES


@<TRIPOS>ATOM
      1 CA         26.6951   21.9491    5.2061 C.3       0 UNK        -0.1979 
      2 C          26.4766   22.3813    3.7638 C.2       0 UNK         0.4864 
      3 O          25.3861   22.1883    3.2254 O.2       0 UNK        -0.5359 
      4 N          27.5051   22.9695    3.1375 N.am      1 UNK        -0.4318 
      5 CA         27.4894   23.4257    1.7387 C.3       1 UNK         0.0824 
      6 C6         28.9196   23.5569    1.1580 C.3       12 UNK        -0.0944 
      7 S7         29.8413   21.9807    1.2265 S.3       12 UNK        -0.2672 
      8 C8         31.1482   22.3265    2.4618 C.3       12 UNK         0.0333 
      9 C9         32.1835   23.3637    2.0244 C.ar      12 UNK        -0.0807 
     10 C10        32.7964   24.1778    2.9841 C.ar      12 UNK        -0.0894 
     11 C11        33.7343   25.1513    2.6193 C.ar      12 UNK        -0.0804 
     12 C12        34.0536   25.3022    1.2627 C.ar      12 UNK        -0.0824 
     13 C13        33.4511   24.4990    0.2931 C.ar      12 UNK        -0.0762 
     14 C14        32.5443   23.5125    0.6820 C.ar      12 UNK        -0.0782 
     15 C15        33.7558   24.7203   -1.1798 C.3       12 UNK         0.0230 
     16 S16        32.8310   26.1443   -1.8415 S.3       12 UNK        -0.2608 
     17 C17        31.1105   25.5370   -1.7820 C.3       12 UNK        -0.0989 
     18 CA         30.0876   26.6900   -1.7138 C.3       5 UNK         0.0716 
     19 N          28.7330   26.2386   -1.9840 N.am      5 UNK        -0.4135 
     20 C          28.0718   26.3321   -3.1379 C.2       4 UNK         0.5031 
     21 O          28.6022   26.5111   -4.2346 O.2       4 UNK        -0.5229 
     22 CA         26.5388   26.2995   -3.0121 C.3       4 UNK         0.0329 
     23 CB         26.0185   24.8534   -2.9816 C.3       4 UNK        -0.2001 
     24 N          26.0921   27.0255   -1.8119 N.am      4 UNK        -0.4303 
     25 C          26.1454   28.3646   -1.6912 C.2       3 UNK         0.5044 
     26 O          26.4756   29.1078   -2.6163 O.2       3 UNK        -0.5152 
     27 CA         25.7898   29.0039   -0.3354 C.3       3 UNK         0.0319 
     28 CB         24.6261   30.0000   -0.4852 C.3       3 UNK        -0.2001 
     29 N          25.4283   28.0133    0.6768 N.am      3 UNK        -0.4354 
     30 C          26.0983   27.7763    1.8111 C.2       2 UNK         0.4964 
     31 O          27.0975   28.3976    2.1766 O.2       2 UNK        -0.5047 
     32 CA         25.5494   26.6542    2.7108 C.3       2 UNK         0.0288 
     33 CB         24.0577   26.3284    2.4682 C.3       2 UNK        -0.2113 
     34 N          26.3529   25.4309    2.6287 N.am      2 UNK        -0.4145 
     35 C          26.6787   24.7271    1.5307 C.2       1 UNK         0.5006 
     36 O          26.3534   25.0517    0.3860 O.2       1 UNK        -0.5103 
     37 C          29.9638   27.3446   -0.3267 C.2       5 UNK         0.5055 
     38 O          29.1805   26.8526    0.4901 O.2       5 UNK        -0.5220 
     39 N          30.6524   28.4736   -0.1185 N.am      6 UNK        -0.4450 
     40 CA         30.3746   29.4860    0.9117 C.3       6 UNK         0.0367 
     41 CB         31.1075   30.7852    0.5261 C.3       6 UNK        -0.1929 
     42 C          30.6389   29.0849    2.3801 C.2       6 UNK         0.5070 
     43 O          31.1834   29.8859    3.1431 O.2       6 UNK        -0.5237 
     44 N          30.2048   27.8888    2.7894 N.am      7 UNK        -0.4739 
     45 CA         30.2616   27.3832    4.1646 C.3       7 UNK         0.0276 
     46 CB         29.7516   25.9380    4.2065 C.3       7 UNK        -0.1927 
     47 C          29.4917   28.2519    5.1732 C.2       7 UNK         0.5013 
     48 O          29.9133   28.3386    6.3262 O.2       7 UNK        -0.5193 
     49 N          28.4344   28.9415    4.7174 N.am      8 UNK        -0.4253 
     50 CA         27.7002   29.9535    5.4874 C.3       8 UNK         0.0242 
     51 CB         26.4780   30.4206    4.6803 C.3       8 UNK        -0.2000 
     52 C          28.5579   31.1637    5.9135 C.2       8 UNK         0.4948 
     53 O          28.2233   31.8115    6.9058 O.2       8 UNK        -0.5275 
     54 N          29.6497   31.4304    5.1829 N.am      9 UNK        -0.4246 
     55 CA         30.6624   32.4402    5.4982 C.3       9 UNK         0.0261 
     56 CB         30.8814   33.3140    4.2493 C.3       9 UNK        -0.1959 
     57 C          31.9839   31.7923    5.9602 C.2       9 UNK         0.5033 
     58 O          33.0088   32.4766    5.9836 O.2       9 UNK        -0.5390 
     59 N          31.9589   30.4860    6.2788 N.am      10 UNK        -0.4215 
     60 CA         33.0984   29.6255    6.6289 C.3       10 UNK         0.0240 
     61 CB         33.6848   30.0307    7.9982 C.3       10 UNK        -0.1982 
     62 C          34.1736   29.5307    5.5241 C.2       10 UNK         0.4970 
     63 O          35.3338   29.2606    5.8370 O.2       10 UNK        -0.4916 
     64 N          33.7632   29.7606    4.2674 N.am      11 UNK        -0.4279 
     65 CA         34.5621   29.8221    3.0331 C.3       11 UNK         0.1003 
     66 C          35.8487   30.7028    3.0686 C.2       11 UNK         0.5709 
     67 N          35.9120   31.7231    3.9167 N.am      11 UNK        -0.7358 
     68 O          36.7796   30.4969    2.2931 O.2       11 UNK        -0.4999 
     69 C69        34.7018   28.4467    2.3223 C.3       12 UNK        -0.0954 
     70 S70        35.6647   27.1798    3.2184 S.3       12 UNK        -0.2268 
     71 C71        34.3509   26.0138    3.7272 C.3       12 UNK         0.0203 
     72 H72        25.9806   22.4484    5.8601 H         1 UNK         0.0888 
     73 H73        26.5494   20.8733    5.3006 H         1 UNK         0.0888 
     74 H74        27.6994   22.1866    5.5567 H         1 UNK         0.0888 
     75 H75        28.3846   23.0731    3.6210 H         1 UNK         0.3017 
     76 H76        26.9729   22.6618    1.1529 H         1 UNK         0.0873 
     77 H77        29.4804   24.3413    1.6657 H         1 UNK         0.0745 
     78 H78        28.8735   23.8576    0.1096 H         1 UNK         0.0745 
     79 H79        31.6706   21.3942    2.6792 H         1 UNK         0.0705 
     80 H80        30.6723   22.6369    3.3929 H         1 UNK         0.0705 
     81 H81        32.5362   24.0589    4.0273 H         1 UNK         0.1334 
     82 H82        34.7589   26.0520    0.9376 H         1 UNK         0.1417 
     83 H83        32.0938   22.8832   -0.0728 H         1 UNK         0.1562 
     84 H84        33.5216   23.8300   -1.7658 H         1 UNK         0.0748 
     85 H85        34.8242   24.8996   -1.3094 H         1 UNK         0.0748 
     86 H86        30.9594   24.8538   -0.9480 H         1 UNK         0.0940 
     87 H87        30.9445   24.9480   -2.6855 H         1 UNK         0.0940 
     88 H88        30.3515   27.4598   -2.4430 H         1 UNK         0.0703 
     89 H89        28.1952   26.1181   -1.1316 H         1 UNK         0.3081 
     90 H90        26.1175   26.7930   -3.8907 H         1 UNK         0.0719 
     91 H91        26.2856   24.3269   -3.8988 H         1 UNK         0.0809 
     92 H92        26.4362   24.2857   -2.1497 H         1 UNK         0.0809 
     93 H93        24.9322   24.8241   -2.8956 H         1 UNK         0.0809 
     94 H94        25.8926   26.4613   -0.9914 H         1 UNK         0.2990 
     95 H95        26.6740   29.5599   -0.0167 H         1 UNK         0.0690 
     96 H96        24.4020   30.4901    0.4625 H         1 UNK         0.0788 
     97 H97        23.7164   29.5088   -0.8326 H         1 UNK         0.0788 
     98 H98        24.8689   30.7847   -1.2030 H         1 UNK         0.0788 
     99 H99        24.6193   27.4417    0.4793 H         1 UNK         0.2993 
    100 H100       25.6426   27.0198    3.7348 H         1 UNK         0.0949 
    101 H101       23.8838   25.8691    1.4944 H         1 UNK         0.0767 
    102 H102       23.6866   25.6345    3.2228 H         1 UNK         0.0767 
    103 H103       23.4407   27.2261    2.5315 H         1 UNK         0.0767 
    104 H104       26.6768   25.0676    3.5123 H         1 UNK         0.3013 
    105 H105       31.3209   28.7469   -0.8246 H         1 UNK         0.3121 
    106 H106       29.3040   29.6966    0.8627 H         1 UNK         0.0774 
    107 H107       30.8548   31.5994    1.2064 H         1 UNK         0.0815 
    108 H108       32.1901   30.6587    0.5549 H         1 UNK         0.0815 
    109 H109       30.8332   31.1159   -0.4757 H         1 UNK         0.0815 
    110 H110       29.7238   27.3190    2.0930 H         1 UNK         0.2987 
    111 H111       31.3095   27.3874    4.4691 H         1 UNK         0.0949 
    112 H112       30.3436   25.2967    3.5584 H         1 UNK         0.0806 
    113 H113       29.8141   25.5279    5.2155 H         1 UNK         0.0806 
    114 H114       28.7131   25.8755    3.8881 H         1 UNK         0.0806 
    115 H115       28.1377   28.7935    3.7548 H         1 UNK         0.3010 
    116 H116       27.3435   29.4752    6.4021 H         1 UNK         0.0829 
    117 H117       25.7958   29.5946    4.4802 H         1 UNK         0.0813 
    118 H118       25.9137   31.1787    5.2253 H         1 UNK         0.0813 
    119 H119       26.7695   30.8544    3.7228 H         1 UNK         0.0813 
    120 H120       29.8687   30.8325    4.3920 H         1 UNK         0.3038 
    121 H121       30.3212   33.0840    6.3111 H         1 UNK         0.0769 
    122 H122       31.5731   34.1315    4.4567 H         1 UNK         0.0811 
    123 H123       29.9475   33.7615    3.9092 H         1 UNK         0.0811 
    124 H124       31.2978   32.7360    3.4233 H         1 UNK         0.0811 
    125 H125       31.0659   30.0045    6.2463 H         1 UNK         0.3204 
    126 H126       32.6925   28.6182    6.7320 H         1 UNK         0.0748 
    127 H127       34.4297   29.3092    8.3362 H         1 UNK         0.0771 
    128 H128       34.1719   31.0055    7.9571 H         1 UNK         0.0771 
    129 H129       32.9100   30.0746    8.7636 H         1 UNK         0.0771 
    130 H130       32.7756   29.9473    4.1158 H         1 UNK         0.2980 
    131 H131       33.9217   30.4026    2.3685 H         1 UNK         0.0545 
    132 H132       36.7359   32.3026    3.9327 H         1 UNK         0.3459 
    133 H133       35.1498   31.9061    4.5531 H         1 UNK         0.3459 
    134 H134       33.7036   28.0552    2.1206 H         1 UNK         0.0616 
    135 H135       35.1571   28.5775    1.3394 H         1 UNK         0.0616 
    136 H136       34.7754   25.3517    4.4830 H         1 UNK         0.0634 
    137 H137       33.5605   26.5778    4.2229 H         1 UNK         0.0634 
@<TRIPOS>BOND
     1    1    2 1    
     2    1   72 1    
     3    1   73 1    
     4    1   74 1    
     5    2    3 2    
     6    2    4 am   BACKBONE|DICT|INTERRES
     7    4    5 1    
     8    4   75 1    
     9    5    6 1    
    10    5   35 1    
    11    5   76 1    
    12    6    7 1    
    13    6   77 1    
    14    6   78 1    
    15    7    8 1    
    16    8    9 1    
    17    8   79 1    
    18    8   80 1    
    19    9   10 ar   
    20    9   14 ar   
    21   10   11 ar   
    22   10   81 1    
    23   11   12 ar   
    24   11   71 1    
    25   12   13 ar   
    26   12   82 1    
    27   13   14 ar   
    28   13   15 1    
    29   14   83 1    
    30   15   16 1    
    31   15   84 1    
    32   15   85 1    
    33   16   17 1    
    34   17   18 1    
    35   17   86 1    
    36   17   87 1    
    37   18   19 1    
    38   18   37 1    
    39   18   88 1    
    40   19   20 am   BACKBONE|DICT|INTERRES
    41   19   89 1    
    42   20   21 2    
    43   20   22 1    
    44   22   23 1    
    45   22   24 1    
    46   22   90 1    
    47   23   91 1    
    48   23   92 1    
    49   23   93 1    
    50   24   25 am   BACKBONE|DICT|INTERRES
    51   24   94 1    
    52   25   26 2    
    53   25   27 1    
    54   27   28 1    
    55   27   29 1    
    56   27   95 1    
    57   28   96 1    
    58   28   97 1    
    59   28   98 1    
    60   29   30 am   BACKBONE|DICT|INTERRES
    61   29   99 1    
    62   30   31 2    
    63   30   32 1    
    64   32   33 1    
    65   32   34 1    
    66   32  100 1    
    67   33  101 1    
    68   33  102 1    
    69   33  103 1    
    70   34   35 am   BACKBONE|DICT|INTERRES
    71   34  104 1    
    72   35   36 2    
    73   37   38 2    
    74   37   39 am   BACKBONE|DICT|INTERRES
    75   39   40 1    
    76   39  105 1    
    77   40   41 1    
    78   40   42 1    
    79   40  106 1    
    80   41  107 1    
    81   41  108 1    
    82   41  109 1    
    83   42   43 2    
    84   42   44 am   BACKBONE|DICT|INTERRES
    85   44   45 1    
    86   44  110 1    
    87   45   46 1    
    88   45   47 1    
    89   45  111 1    
    90   46  112 1    
    91   46  113 1    
    92   46  114 1    
    93   47   48 2    
    94   47   49 am   BACKBONE|DICT|INTERRES
    95   49   50 1    
    96   49  115 1    
    97   50   51 1    
    98   50   52 1    
    99   50  116 1    
   100   51  117 1    
   101   51  118 1    
   102   51  119 1    
   103   52   53 2    
   104   52   54 am   BACKBONE|DICT|INTERRES
   105   54   55 1    
   106   54  120 1    
   107   55   56 1    
   108   55   57 1    
   109   55  121 1    
   110   56  122 1    
   111   56  123 1    
   112   56  124 1    
   113   57   58 2    
   114   57   59 am   BACKBONE|DICT|INTERRES
   115   59   60 1    
   116   59  125 1    
   117   60   61 1    
   118   60   62 1    
   119   60  126 1    
   120   61  127 1    
   121   61  128 1    
   122   61  129 1    
   123   62   63 2    
   124   62   64 am   BACKBONE|DICT|INTERRES
   125   64   65 1    
   126   64  130 1    
   127   65   66 1    
   128   65   69 1    
   129   65  131 1    
   130   66   67 am   BACKBONE|DICT|INTERRES
   131   66   68 2    
   132   67  132 1    
   133   67  133 1    
   134   69   70 1    
   135   69  134 1    
   136   69  135 1    
   137   70   71 1    
   138   71  136 1    
   139   71  137 1    
@<TRIPOS>SUBSTRUCTURE
     1 UNK         1 GROUP             0       ****    0 ROOT    
