@<TRIPOS>MOLECULE
3R136
137   139    1
SMALL
USER_CHARGES


@<TRIPOS>ATOM
      1 CA         30.8235   27.5044   -4.0384 C.3       0 UNK        -0.1979 
      2 C          29.7227   27.2254   -3.0271 C.2       0 UNK         0.4864 
      3 O          28.5471   27.4387   -3.3272 O.2       0 UNK        -0.5359 
      4 N          30.0880   26.7402   -1.8333 N.am      1 UNK        -0.4318 
      5 CA         29.1826   26.3995   -0.7299 C.3       1 UNK         0.0824 
      6 C6         29.8813   26.4792    0.6555 C.3       12 UNK        -0.0944 
      7 S7         31.4967   25.6303    0.7325 S.3       12 UNK        -0.2672 
      8 C8         32.3043   26.5301    2.0902 C.3       12 UNK         0.0333 
      9 C9         31.9710   25.9255    3.4456 C.ar      12 UNK        -0.0807 
     10 C10        32.7504   24.8777    3.9402 C.ar      12 UNK        -0.0894 
     11 C11        32.5072   24.3461    5.2083 C.ar      12 UNK        -0.0804 
     12 C12        31.4658   24.8658    5.9826 C.ar      12 UNK        -0.0824 
     13 C13        30.6685   25.9098    5.4982 C.ar      12 UNK        -0.0762 
     14 C14        30.9255   26.4335    4.2248 C.ar      12 UNK        -0.0782 
     15 C15        29.5647   26.4857    6.3806 C.3       12 UNK         0.0230 
     16 S16        27.9214   26.4640    5.5876 S.3       12 UNK        -0.2608 
     17 C17        27.7138   28.1991    5.0500 C.3       12 UNK        -0.0989 
     18 CA         27.3905   28.3182    3.5389 C.3       5 UNK         0.0716 
     19 N          26.1375   27.6353    3.2023 N.am      5 UNK        -0.4135 
     20 C          25.8103   27.2008    1.9816 C.2       4 UNK         0.5031 
     21 O          26.5601   27.2581    1.0054 O.2       4 UNK        -0.5229 
     22 CA         24.3942   26.6318    1.8115 C.3       4 UNK         0.0329 
     23 CB         23.5284   27.5821    0.9687 C.3       4 UNK        -0.2001 
     24 N          24.4483   25.3261    1.1596 N.am      4 UNK        -0.4303 
     25 C          24.7775   24.1808    1.7669 C.2       3 UNK         0.5044 
     26 O          24.9794   24.0857    2.9780 O.2       3 UNK        -0.5152 
     27 CA         24.9169   22.9271    0.8837 C.3       3 UNK         0.0319 
     28 CB         23.5412   22.3374    0.5140 C.3       3 UNK        -0.2001 
     29 N          25.7703   23.1237   -0.2970 N.am      3 UNK        -0.4354 
     30 C          25.5469   23.8707   -1.3871 C.2       2 UNK         0.4964 
     31 O          24.5179   24.5208   -1.5828 O.2       2 UNK        -0.5047 
     32 CA         26.7072   23.9560   -2.3935 C.3       2 UNK         0.0288 
     33 CB         26.2120   24.1717   -3.8350 C.3       2 UNK        -0.2113 
     34 N          27.6058   25.0512   -2.0327 N.am      2 UNK        -0.4145 
     35 C          28.4351   25.0702   -0.9809 C.2       1 UNK         0.5006 
     36 O          28.6170   24.0946   -0.2487 O.2       1 UNK        -0.5103 
     37 C          27.3401   29.7986    3.0977 C.2       5 UNK         0.5055 
     38 O          26.2719   30.3072    2.7500 O.2       5 UNK        -0.5220 
     39 N          28.5053   30.4634    3.1303 N.am      6 UNK        -0.4450 
     40 CA         28.7564   31.8785    2.8066 C.3       6 UNK         0.0367 
     41 CB         27.8461   32.8345    3.6060 C.3       6 UNK        -0.1929 
     42 C          28.7601   32.2089    1.3017 C.2       6 UNK         0.5070 
     43 O          29.1911   33.3023    0.9347 O.2       6 UNK        -0.5237 
     44 N          28.3600   31.2563    0.4471 N.am      7 UNK        -0.4739 
     45 CA         28.5767   31.2963   -1.0054 C.3       7 UNK         0.0276 
     46 CB         27.6391   30.2856   -1.6822 C.3       7 UNK        -0.1927 
     47 C          30.0502   31.0382   -1.3887 C.2       7 UNK         0.5013 
     48 O          30.4618   31.3790   -2.4978 O.2       7 UNK        -0.5193 
     49 N          30.8158   30.4766   -0.4481 N.am      8 UNK        -0.4253 
     50 CA         32.2690   30.3908   -0.4199 C.3       8 UNK         0.0242 
     51 CB         32.7319   29.0616   -1.0371 C.3       8 UNK        -0.2000 
     52 C          32.6906   30.5155    1.0518 C.2       8 UNK         0.4948 
     53 O          31.8351   30.4067    1.9388 O.2       8 UNK        -0.5275 
     54 N          33.9897   30.7477    1.2851 N.am      9 UNK        -0.4246 
     55 CA         34.5923   30.9004    2.6138 C.3       9 UNK         0.0261 
     56 CB         36.0837   31.2445    2.4641 C.3       9 UNK        -0.1959 
     57 C          34.4054   29.6419    3.4790 C.2       9 UNK         0.5033 
     58 O          34.7997   28.5527    3.0565 O.2       9 UNK        -0.5390 
     59 N          33.7858   29.8189    4.6515 N.am      10 UNK        -0.4215 
     60 CA         33.4070   28.7393    5.5604 C.3       10 UNK         0.0240 
     61 CB         32.3621   29.2656    6.5585 C.3       10 UNK        -0.1982 
     62 C          34.5984   28.1174    6.3014 C.2       10 UNK         0.4970 
     63 O          35.5916   28.8018    6.5600 O.2       10 UNK        -0.4916 
     64 N          34.4396   26.8405    6.6693 N.am      11 UNK        -0.4279 
     65 CA         35.3471   26.0878    7.5455 C.3       11 UNK         0.1003 
     66 C          35.4521   26.7085    8.9667 C.2       11 UNK         0.5709 
     67 N          36.6296   26.6714    9.5755 N.am      11 UNK        -0.7358 
     68 O          34.4691   27.1808    9.5355 O.2       11 UNK        -0.4999 
     69 C69        34.9256   24.5984    7.6427 C.3       12 UNK        -0.0954 
     70 S70        35.0803   23.7150    6.0548 S.3       12 UNK        -0.2268 
     71 C71        33.3644   23.1992    5.7244 C.3       12 UNK         0.0203 
     72 H72        30.9071   28.5773   -4.2108 H         1 UNK         0.0888 
     73 H73        31.7913   27.1351   -3.6998 H         1 UNK         0.0888 
     74 H74        30.5920   27.0226   -4.9880 H         1 UNK         0.0888 
     75 H75        31.0609   26.5375   -1.6512 H         1 UNK         0.3017 
     76 H76        28.4033   27.1608   -0.7151 H         1 UNK         0.0873 
     77 H77        30.0361   27.5312    0.8986 H         1 UNK         0.0745 
     78 H78        29.2363   26.0897    1.4458 H         1 UNK         0.0745 
     79 H79        32.0407   27.5880    2.0650 H         1 UNK         0.0705 
     80 H80        33.3830   26.4919    1.9317 H         1 UNK         0.0705 
     81 H81        33.5596   24.4820    3.3411 H         1 UNK         0.1334 
     82 H82        31.2771   24.4556    6.9656 H         1 UNK         0.1417 
     83 H83        30.3293   27.2513    3.8492 H         1 UNK         0.1562 
     84 H84        29.8339   27.4950    6.6910 H         1 UNK         0.0748 
     85 H85        29.4853   25.9093    7.3036 H         1 UNK         0.0748 
     86 H86        28.6163   28.7607    5.2951 H         1 UNK         0.0940 
     87 H87        26.9176   28.6466    5.6484 H         1 UNK         0.0940 
     88 H88        28.1959   27.8421    2.9767 H         1 UNK         0.0703 
     89 H89        25.4574   27.5680    3.9444 H         1 UNK         0.3081 
     90 H90        23.9262   26.5187    2.7919 H         1 UNK         0.0719 
     91 H91        23.9373   27.7175   -0.0338 H         1 UNK         0.0809 
     92 H92        22.5098   27.2070    0.8677 H         1 UNK         0.0809 
     93 H93        23.4683   28.5681    1.4317 H         1 UNK         0.0809 
     94 H94        24.3469   25.3054    0.1486 H         1 UNK         0.2990 
     95 H95        25.4334   22.1797    1.4885 H         1 UNK         0.0690 
     96 H96        23.6463   21.4165   -0.0596 H         1 UNK         0.0788 
     97 H97        22.9387   23.0312   -0.0728 H         1 UNK         0.0788 
     98 H98        22.9705   22.0966    1.4118 H         1 UNK         0.0788 
     99 H99        26.7004   22.7326   -0.2076 H         1 UNK         0.2993 
    100 H100       27.2643   23.0168   -2.3647 H         1 UNK         0.0949 
    101 H101       25.6881   25.1221   -3.9470 H         1 UNK         0.0767 
    102 H102       27.0410   24.1631   -4.5430 H         1 UNK         0.0767 
    103 H103       25.5223   23.3807   -4.1325 H         1 UNK         0.0767 
    104 H104       27.5583   25.8941   -2.5984 H         1 UNK         0.3013 
    105 H105       29.3374   29.9535    3.3950 H         1 UNK         0.3121 
    106 H106       29.7787   32.0636    3.1411 H         1 UNK         0.0774 
    107 H107       28.1718   33.8685    3.4861 H         1 UNK         0.0815 
    108 H108       26.8089   32.7877    3.2742 H         1 UNK         0.0815 
    109 H109       27.8708   32.6099    4.6722 H         1 UNK         0.0815 
    110 H110       27.9595   30.4113    0.8286 H         1 UNK         0.2987 
    111 H111       28.3207   32.2942   -1.3687 H         1 UNK         0.0949 
    112 H112       27.7968   30.2639   -2.7616 H         1 UNK         0.0806 
    113 H113       27.7990   29.2751   -1.3102 H         1 UNK         0.0806 
    114 H114       26.5930   30.5409   -1.5127 H         1 UNK         0.0806 
    115 H115       30.4006   30.2990    0.4580 H         1 UNK         0.3010 
    116 H116       32.6961   31.2291   -0.9747 H         1 UNK         0.0829 
    117 H117       32.4294   28.9899   -2.0808 H         1 UNK         0.0813 
    118 H118       33.8180   28.9679   -1.0093 H         1 UNK         0.0813 
    119 H119       32.3168   28.2077   -0.5040 H         1 UNK         0.0813 
    120 H120       34.6226   30.7918    0.4997 H         1 UNK         0.3038 
    121 H121       34.0968   31.7430    3.1010 H         1 UNK         0.0769 
    122 H122       36.5521   31.3782    3.4403 H         1 UNK         0.0811 
    123 H123       36.2255   32.1714    1.9081 H         1 UNK         0.0811 
    124 H124       36.6299   30.4541    1.9475 H         1 UNK         0.0811 
    125 H125       33.5283   30.7540    4.9306 H         1 UNK         0.3204 
    126 H126       32.9493   27.9582    4.9588 H         1 UNK         0.0748 
    127 H127       32.7555   30.0887    7.1565 H         1 UNK         0.0771 
    128 H128       31.4660   29.6176    6.0468 H         1 UNK         0.0771 
    129 H129       32.0521   28.4828    7.2520 H         1 UNK         0.0771 
    130 H130       33.5951   26.3563    6.4023 H         1 UNK         0.2980 
    131 H131       36.3383   26.1340    7.0899 H         1 UNK         0.0545 
    132 H132       36.7127   27.0546   10.5041 H         1 UNK         0.3459 
    133 H133       37.4386   26.2736    9.1239 H         1 UNK         0.3459 
    134 H134       33.9057   24.5119    8.0218 H         1 UNK         0.0616 
    135 H135       35.5583   24.0695    8.3581 H         1 UNK         0.0616 
    136 H136       33.3793   22.4071    4.9745 H         1 UNK         0.0634 
    137 H137       32.9347   22.7563    6.6243 H         1 UNK         0.0634 
@<TRIPOS>BOND
     1    1    2 1    
     2    1   72 1    
     3    1   73 1    
     4    1   74 1    
     5    2    3 2    
     6    2    4 am   BACKBONE|DICT|INTERRES
     7    4    5 1    
     8    4   75 1    
     9    5    6 1    
    10    5   35 1    
    11    5   76 1    
    12    6    7 1    
    13    6   77 1    
    14    6   78 1    
    15    7    8 1    
    16    8    9 1    
    17    8   79 1    
    18    8   80 1    
    19    9   10 ar   
    20    9   14 ar   
    21   10   11 ar   
    22   10   81 1    
    23   11   12 ar   
    24   11   71 1    
    25   12   13 ar   
    26   12   82 1    
    27   13   14 ar   
    28   13   15 1    
    29   14   83 1    
    30   15   16 1    
    31   15   84 1    
    32   15   85 1    
    33   16   17 1    
    34   17   18 1    
    35   17   86 1    
    36   17   87 1    
    37   18   19 1    
    38   18   37 1    
    39   18   88 1    
    40   19   20 am   BACKBONE|DICT|INTERRES
    41   19   89 1    
    42   20   21 2    
    43   20   22 1    
    44   22   23 1    
    45   22   24 1    
    46   22   90 1    
    47   23   91 1    
    48   23   92 1    
    49   23   93 1    
    50   24   25 am   BACKBONE|DICT|INTERRES
    51   24   94 1    
    52   25   26 2    
    53   25   27 1    
    54   27   28 1    
    55   27   29 1    
    56   27   95 1    
    57   28   96 1    
    58   28   97 1    
    59   28   98 1    
    60   29   30 am   BACKBONE|DICT|INTERRES
    61   29   99 1    
    62   30   31 2    
    63   30   32 1    
    64   32   33 1    
    65   32   34 1    
    66   32  100 1    
    67   33  101 1    
    68   33  102 1    
    69   33  103 1    
    70   34   35 am   BACKBONE|DICT|INTERRES
    71   34  104 1    
    72   35   36 2    
    73   37   38 2    
    74   37   39 am   BACKBONE|DICT|INTERRES
    75   39   40 1    
    76   39  105 1    
    77   40   41 1    
    78   40   42 1    
    79   40  106 1    
    80   41  107 1    
    81   41  108 1    
    82   41  109 1    
    83   42   43 2    
    84   42   44 am   BACKBONE|DICT|INTERRES
    85   44   45 1    
    86   44  110 1    
    87   45   46 1    
    88   45   47 1    
    89   45  111 1    
    90   46  112 1    
    91   46  113 1    
    92   46  114 1    
    93   47   48 2    
    94   47   49 am   BACKBONE|DICT|INTERRES
    95   49   50 1    
    96   49  115 1    
    97   50   51 1    
    98   50   52 1    
    99   50  116 1    
   100   51  117 1    
   101   51  118 1    
   102   51  119 1    
   103   52   53 2    
   104   52   54 am   BACKBONE|DICT|INTERRES
   105   54   55 1    
   106   54  120 1    
   107   55   56 1    
   108   55   57 1    
   109   55  121 1    
   110   56  122 1    
   111   56  123 1    
   112   56  124 1    
   113   57   58 2    
   114   57   59 am   BACKBONE|DICT|INTERRES
   115   59   60 1    
   116   59  125 1    
   117   60   61 1    
   118   60   62 1    
   119   60  126 1    
   120   61  127 1    
   121   61  128 1    
   122   61  129 1    
   123   62   63 2    
   124   62   64 am   BACKBONE|DICT|INTERRES
   125   64   65 1    
   126   64  130 1    
   127   65   66 1    
   128   65   69 1    
   129   65  131 1    
   130   66   67 am   BACKBONE|DICT|INTERRES
   131   66   68 2    
   132   67  132 1    
   133   67  133 1    
   134   69   70 1    
   135   69  134 1    
   136   69  135 1    
   137   70   71 1    
   138   71  136 1    
   139   71  137 1    
@<TRIPOS>SUBSTRUCTURE
     1 UNK         1 GROUP             0       ****    0 ROOT    
