@<TRIPOS>MOLECULE
3R136
137   139    1
SMALL
USER_CHARGES


@<TRIPOS>ATOM
      1 CA         29.8154   20.1330    4.7395 C.3       0 UNK        -0.1979 
      2 C          29.1793   20.9961    3.6594 C.2       0 UNK         0.4864 
      3 O          29.0772   22.2093    3.8430 O.2       0 UNK        -0.5359 
      4 N          28.7770   20.3695    2.5423 N.am      1 UNK        -0.4318 
      5 CA         28.1001   20.9459    1.3683 C.3       1 UNK         0.0824 
      6 C6         28.8899   22.0991    0.6826 C.3       12 UNK        -0.0944 
      7 S7         30.4179   21.5097   -0.1185 S.3       12 UNK        -0.2672 
      8 C8         31.7090   22.0030    1.0665 C.3       12 UNK         0.0333 
      9 C9         31.9971   23.4984    1.0515 C.ar      12 UNK        -0.0807 
     10 C10        31.6945   24.2898    2.1633 C.ar      12 UNK        -0.0894 
     11 C11        32.0611   25.6398    2.1966 C.ar      12 UNK        -0.0804 
     12 C12        32.7071   26.2068    1.0921 C.ar      12 UNK        -0.0824 
     13 C13        32.9858   25.4315   -0.0379 C.ar      12 UNK        -0.0762 
     14 C14        32.6324   24.0786   -0.0496 C.ar      12 UNK        -0.0782 
     15 C15        33.7034   26.0315   -1.2373 C.3       12 UNK         0.0230 
     16 S16        32.5281   26.6339   -2.4913 S.3       12 UNK        -0.2608 
     17 C17        32.3595   28.4001   -2.0646 C.3       12 UNK        -0.0989 
     18 CA         30.8960   28.8098   -1.7679 C.3       5 UNK         0.0716 
     19 N          30.3655   28.1386   -0.5743 N.am      5 UNK        -0.4135 
     20 C          29.0739   28.1192   -0.2209 C.2       4 UNK         0.5031 
     21 O          28.1664   28.6077   -0.8990 O.2       4 UNK        -0.5229 
     22 CA         28.7605   27.4855    1.1462 C.3       4 UNK         0.0329 
     23 CB         28.9847   28.5064    2.2757 C.3       4 UNK        -0.2001 
     24 N          27.3828   26.9975    1.2199 N.am      4 UNK        -0.4303 
     25 C          26.9376   25.9129    0.5778 C.2       3 UNK         0.5044 
     26 O          27.6506   25.1735   -0.1070 O.2       3 UNK        -0.5152 
     27 CA         25.4442   25.5983    0.7205 C.3       3 UNK         0.0319 
     28 CB         24.6023   26.4081   -0.2822 C.3       3 UNK        -0.2001 
     29 N          25.2801   24.1718    0.4786 N.am      3 UNK        -0.4354 
     30 C          24.2898   23.3911    0.9212 C.2       2 UNK         0.4964 
     31 O          23.3062   23.8062    1.5351 O.2       2 UNK        -0.5047 
     32 CA         24.4318   21.8836    0.6418 C.3       2 UNK         0.0288 
     33 CB         23.7304   21.5109   -0.6749 C.3       2 UNK        -0.2113 
     34 N          25.8326   21.4459    0.5880 N.am      2 UNK        -0.4145 
     35 C          26.6344   21.3455    1.6596 C.2       1 UNK         0.5006 
     36 O          26.2401   21.5403    2.8123 O.2       1 UNK        -0.5103 
     37 C          30.7905   30.3495   -1.6782 C.2       5 UNK         0.5055 
     38 O          30.6595   31.0055   -2.7133 O.2       5 UNK        -0.5220 
     39 N          30.8666   30.8929   -0.4566 N.am      6 UNK        -0.4450 
     40 CA         30.7223   32.3150   -0.1475 C.3       6 UNK         0.0367 
     41 CB         31.8191   32.7031    0.8624 C.3       6 UNK        -0.1929 
     42 C          29.3168   32.6000    0.4109 C.2       6 UNK         0.5070 
     43 O          28.5119   31.6823    0.5771 O.2       6 UNK        -0.5237 
     44 N          29.0482   33.8760    0.7183 N.am      7 UNK        -0.4739 
     45 CA         27.7884   34.3535    1.3078 C.3       7 UNK         0.0276 
     46 CB         27.7416   35.8871    1.1985 C.3       7 UNK        -0.1927 
     47 C          27.5541   33.9088    2.7682 C.2       7 UNK         0.5013 
     48 O          26.4477   34.0853    3.2804 O.2       7 UNK        -0.5193 
     49 N          28.5856   33.3524    3.4098 N.am      8 UNK        -0.4253 
     50 CA         28.5718   32.7693    4.7458 C.3       8 UNK         0.0242 
     51 CB         29.0524   33.8201    5.7629 C.3       8 UNK        -0.2000 
     52 C          29.4905   31.5409    4.7343 C.2       8 UNK         0.4948 
     53 O          30.2197   31.3279    3.7599 O.2       8 UNK        -0.5275 
     54 N          29.4745   30.7644    5.8253 N.am      9 UNK        -0.4246 
     55 CA         30.3018   29.5694    6.0322 C.3       9 UNK         0.0261 
     56 CB         29.6986   28.7310    7.1741 C.3       9 UNK        -0.1959 
     57 C          31.7915   29.9021    6.2655 C.2       9 UNK         0.5033 
     58 O          32.3531   29.5598    7.3083 O.2       9 UNK        -0.5390 
     59 N          32.4128   30.5493    5.2709 N.am      10 UNK        -0.4215 
     60 CA         33.8199   30.9675    5.2357 C.3       10 UNK         0.0240 
     61 CB         34.0612   31.7826    3.9543 C.3       10 UNK        -0.1982 
     62 C          34.8298   29.8082    5.3359 C.2       10 UNK         0.4970 
     63 O          35.9834   30.0410    5.6983 O.2       10 UNK        -0.4916 
     64 N          34.3725   28.5885    5.0318 N.am      11 UNK        -0.4279 
     65 CA         35.0795   27.3243    5.2602 C.3       11 UNK         0.1003 
     66 C          35.2890   26.9518    6.7599 C.2       11 UNK         0.5709 
     67 N          34.5937   27.5702    7.7094 N.am      11 UNK        -0.7358 
     68 O          36.1115   26.0915    7.0657 O.2       11 UNK        -0.4999 
     69 C69        34.4167   26.1719    4.4602 C.3       12 UNK        -0.0954 
     70 S70        32.6646   25.8789    4.9044 S.3       12 UNK        -0.2268 
     71 C71        31.7707   26.4782    3.4342 C.3       12 UNK         0.0203 
     72 H72        29.8693   19.0843    4.4477 H         1 UNK         0.0888 
     73 H73        30.8277   20.4789    4.9473 H         1 UNK         0.0888 
     74 H74        29.2367   20.1993    5.6604 H         1 UNK         0.0888 
     75 H75        28.8955   19.3672    2.4955 H         1 UNK         0.3017 
     76 H76        28.0362   20.1229    0.6541 H         1 UNK         0.0873 
     77 H77        28.2957   22.5515   -0.1124 H         1 UNK         0.0745 
     78 H78        29.1113   22.9121    1.3750 H         1 UNK         0.0745 
     79 H79        32.6267   21.4699    0.8142 H         1 UNK         0.0705 
     80 H80        31.4384   21.6684    2.0672 H         1 UNK         0.0705 
     81 H81        31.2053   23.8482    3.0215 H         1 UNK         0.1334 
     82 H82        33.0099   27.2447    1.1174 H         1 UNK         0.1417 
     83 H83        32.8658   23.4690   -0.9122 H         1 UNK         0.1562 
     84 H84        34.3361   25.2714   -1.6983 H         1 UNK         0.0748 
     85 H85        34.3817   26.8275   -0.9267 H         1 UNK         0.0748 
     86 H86        32.7466   28.9650   -2.9156 H         1 UNK         0.0940 
     87 H87        33.0063   28.6535   -1.2229 H         1 UNK         0.0940 
     88 H88        30.2803   28.5028   -2.6165 H         1 UNK         0.0703 
     89 H89        31.0371   27.6502   -0.0014 H         1 UNK         0.3081 
     90 H90        29.4304   26.6365    1.2988 H         1 UNK         0.0719 
     91 H91        28.3491   29.3854    2.1570 H         1 UNK         0.0809 
     92 H92        28.7737   28.0731    3.2532 H         1 UNK         0.0809 
     93 H93        30.0162   28.8592    2.2943 H         1 UNK         0.0809 
     94 H94        26.7239   27.5758    1.7203 H         1 UNK         0.2990 
     95 H95        25.1318   25.8289    1.7414 H         1 UNK         0.0690 
     96 H96        23.5395   26.1888   -0.1785 H         1 UNK         0.0788 
     97 H97        24.8899   26.1933   -1.3123 H         1 UNK         0.0788 
     98 H98        24.7290   27.4799   -0.1249 H         1 UNK         0.0788 
     99 H99        26.0724   23.7536    0.0068 H         1 UNK         0.2993 
    100 H100       23.9354   21.3509    1.4564 H         1 UNK         0.0949 
    101 H101       22.6797   21.8041   -0.6526 H         1 UNK         0.0767 
    102 H102       24.1883   22.0057   -1.5324 H         1 UNK         0.0767 
    103 H103       23.7610   20.4353   -0.8503 H         1 UNK         0.0767 
    104 H104       26.2086   21.2439   -0.3277 H         1 UNK         0.3013 
    105 H105       30.8874   30.2735    0.3391 H         1 UNK         0.3121 
    106 H106       30.8513   32.9156   -1.0505 H         1 UNK         0.0774 
    107 H107       31.7907   33.7665    1.1015 H         1 UNK         0.0815 
    108 H108       31.7204   32.1545    1.7985 H         1 UNK         0.0815 
    109 H109       32.8118   32.4955    0.4625 H         1 UNK         0.0815 
    110 H110       29.7588   34.5752    0.5535 H         1 UNK         0.2987 
    111 H111       26.9652   33.9436    0.7182 H         1 UNK         0.0949 
    112 H112       28.5476   36.3567    1.7638 H         1 UNK         0.0806 
    113 H113       27.8208   36.2150    0.1618 H         1 UNK         0.0806 
    114 H114       26.8007   36.2792    1.5874 H         1 UNK         0.0806 
    115 H115       29.4276   33.1541    2.8847 H         1 UNK         0.3010 
    116 H116       27.5621   32.4380    4.9980 H         1 UNK         0.0829 
    117 H117       28.4169   34.7058    5.7447 H         1 UNK         0.0813 
    118 H118       29.0286   33.4296    6.7808 H         1 UNK         0.0813 
    119 H119       30.0751   34.1398    5.5582 H         1 UNK         0.0813 
    120 H120       28.8741   31.0271    6.5940 H         1 UNK         0.3038 
    121 H121       30.2547   28.9634    5.1251 H         1 UNK         0.0769 
    122 H122       30.2652   27.8105    7.3233 H         1 UNK         0.0811 
    123 H123       28.6704   28.4425    6.9555 H         1 UNK         0.0811 
    124 H124       29.7031   29.2737    8.1202 H         1 UNK         0.0811 
    125 H125       31.8271   30.8316    4.4859 H         1 UNK         0.3204 
    126 H126       33.9894   31.6172    6.0966 H         1 UNK         0.0748 
    127 H127       35.0889   32.1459    3.9086 H         1 UNK         0.0771 
    128 H128       33.8857   31.1861    3.0580 H         1 UNK         0.0771 
    129 H129       33.4089   32.6552    3.9096 H         1 UNK         0.0771 
    130 H130       33.4054   28.5000    4.7655 H         1 UNK         0.2980 
    131 H131       36.0838   27.4542    4.8530 H         1 UNK         0.0545 
    132 H132       34.7484   27.3182    8.6722 H         1 UNK         0.3459 
    133 H133       33.8942   28.2678    7.4789 H         1 UNK         0.3459 
    134 H134       34.4917   26.3838    3.3933 H         1 UNK         0.0616 
    135 H135       34.9652   25.2398    4.6068 H         1 UNK         0.0616 
    136 H136       30.7010   26.4399    3.6431 H         1 UNK         0.0634 
    137 H137       32.0166   27.5274    3.2661 H         1 UNK         0.0634 
@<TRIPOS>BOND
     1    1    2 1    
     2    1   72 1    
     3    1   73 1    
     4    1   74 1    
     5    2    3 2    
     6    2    4 am   BACKBONE|DICT|INTERRES
     7    4    5 1    
     8    4   75 1    
     9    5    6 1    
    10    5   35 1    
    11    5   76 1    
    12    6    7 1    
    13    6   77 1    
    14    6   78 1    
    15    7    8 1    
    16    8    9 1    
    17    8   79 1    
    18    8   80 1    
    19    9   10 ar   
    20    9   14 ar   
    21   10   11 ar   
    22   10   81 1    
    23   11   12 ar   
    24   11   71 1    
    25   12   13 ar   
    26   12   82 1    
    27   13   14 ar   
    28   13   15 1    
    29   14   83 1    
    30   15   16 1    
    31   15   84 1    
    32   15   85 1    
    33   16   17 1    
    34   17   18 1    
    35   17   86 1    
    36   17   87 1    
    37   18   19 1    
    38   18   37 1    
    39   18   88 1    
    40   19   20 am   BACKBONE|DICT|INTERRES
    41   19   89 1    
    42   20   21 2    
    43   20   22 1    
    44   22   23 1    
    45   22   24 1    
    46   22   90 1    
    47   23   91 1    
    48   23   92 1    
    49   23   93 1    
    50   24   25 am   BACKBONE|DICT|INTERRES
    51   24   94 1    
    52   25   26 2    
    53   25   27 1    
    54   27   28 1    
    55   27   29 1    
    56   27   95 1    
    57   28   96 1    
    58   28   97 1    
    59   28   98 1    
    60   29   30 am   BACKBONE|DICT|INTERRES
    61   29   99 1    
    62   30   31 2    
    63   30   32 1    
    64   32   33 1    
    65   32   34 1    
    66   32  100 1    
    67   33  101 1    
    68   33  102 1    
    69   33  103 1    
    70   34   35 am   BACKBONE|DICT|INTERRES
    71   34  104 1    
    72   35   36 2    
    73   37   38 2    
    74   37   39 am   BACKBONE|DICT|INTERRES
    75   39   40 1    
    76   39  105 1    
    77   40   41 1    
    78   40   42 1    
    79   40  106 1    
    80   41  107 1    
    81   41  108 1    
    82   41  109 1    
    83   42   43 2    
    84   42   44 am   BACKBONE|DICT|INTERRES
    85   44   45 1    
    86   44  110 1    
    87   45   46 1    
    88   45   47 1    
    89   45  111 1    
    90   46  112 1    
    91   46  113 1    
    92   46  114 1    
    93   47   48 2    
    94   47   49 am   BACKBONE|DICT|INTERRES
    95   49   50 1    
    96   49  115 1    
    97   50   51 1    
    98   50   52 1    
    99   50  116 1    
   100   51  117 1    
   101   51  118 1    
   102   51  119 1    
   103   52   53 2    
   104   52   54 am   BACKBONE|DICT|INTERRES
   105   54   55 1    
   106   54  120 1    
   107   55   56 1    
   108   55   57 1    
   109   55  121 1    
   110   56  122 1    
   111   56  123 1    
   112   56  124 1    
   113   57   58 2    
   114   57   59 am   BACKBONE|DICT|INTERRES
   115   59   60 1    
   116   59  125 1    
   117   60   61 1    
   118   60   62 1    
   119   60  126 1    
   120   61  127 1    
   121   61  128 1    
   122   61  129 1    
   123   62   63 2    
   124   62   64 am   BACKBONE|DICT|INTERRES
   125   64   65 1    
   126   64  130 1    
   127   65   66 1    
   128   65   69 1    
   129   65  131 1    
   130   66   67 am   BACKBONE|DICT|INTERRES
   131   66   68 2    
   132   67  132 1    
   133   67  133 1    
   134   69   70 1    
   135   69  134 1    
   136   69  135 1    
   137   70   71 1    
   138   71  136 1    
   139   71  137 1    
@<TRIPOS>SUBSTRUCTURE
     1 UNK         1 GROUP             0       ****    0 ROOT    
