@<TRIPOS>MOLECULE
3R136
137   139    1
SMALL
USER_CHARGES


@<TRIPOS>ATOM
      1 CA         25.6906   19.7241    2.6879 C.3       0 UNK        -0.1979 
      2 C          26.5031   19.6617    1.4026 C.2       0 UNK         0.4864 
      3 O          26.1983   18.8532    0.5239 O.2       0 UNK        -0.5359 
      4 N          27.5378   20.5032    1.2918 N.am      1 UNK        -0.4318 
      5 CA         28.3783   20.6494    0.1005 C.3       1 UNK         0.0824 
      6 C6         29.7889   21.1954    0.4582 C.3       12 UNK        -0.0944 
      7 S7         29.7912   22.8110    1.3157 S.3       12 UNK        -0.2672 
      8 C8         30.1651   22.2948    3.0209 C.3       12 UNK         0.0333 
      9 C9         30.0062   23.4345    4.0184 C.ar      12 UNK        -0.0807 
     10 C10        31.0934   23.8588    4.7888 C.ar      12 UNK        -0.0894 
     11 C11        30.9334   24.8555    5.7573 C.ar      12 UNK        -0.0804 
     12 C12        29.6756   25.4394    5.9437 C.ar      12 UNK        -0.0824 
     13 C13        28.5835   25.0329    5.1697 C.ar      12 UNK        -0.0762 
     14 C14        28.7553   24.0280    4.2134 C.ar      12 UNK        -0.0782 
     15 C15        27.2061   25.6460    5.3816 C.3       12 UNK         0.0230 
     16 S16        26.7676   26.8127    4.0531 S.3       12 UNK        -0.2608 
     17 C17        27.7793   28.2672    4.4838 C.3       12 UNK        -0.0989 
     18 CA         29.1054   28.3286    3.6838 C.3       5 UNK         0.0716 
     19 N          28.8649   28.4452    2.2444 N.am      5 UNK        -0.4135 
     20 C          29.5667   27.8231    1.2920 C.2       4 UNK         0.5031 
     21 O          30.4424   26.9816    1.5096 O.2       4 UNK        -0.5229 
     22 CA         29.2397   28.2471   -0.1533 C.3       4 UNK         0.0329 
     23 CB         29.8498   29.6250   -0.4664 C.3       4 UNK        -0.2001 
     24 N          29.7354   27.2837   -1.1377 N.am      4 UNK        -0.4303 
     25 C          29.2313   26.0584   -1.3271 C.2       3 UNK         0.5044 
     26 O          28.2080   25.6472   -0.7742 O.2       3 UNK        -0.5152 
     27 CA         30.0230   25.1568   -2.2949 C.3       3 UNK         0.0319 
     28 CB         31.4411   24.8802   -1.7621 C.3       3 UNK        -0.2001 
     29 N          29.3623   23.8717   -2.5167 N.am      3 UNK        -0.4354 
     30 C          28.3126   23.6601   -3.3220 C.2       2 UNK         0.4964 
     31 O          27.8184   24.5273   -4.0443 O.2       2 UNK        -0.5047 
     32 CA         27.7260   22.2336   -3.3503 C.3       2 UNK         0.0288 
     33 CB         28.0993   21.5235   -4.6629 C.3       2 UNK        -0.2113 
     34 N          28.1643   21.4050   -2.2205 N.am      2 UNK        -0.4145 
     35 C          27.6744   21.5047   -0.9765 C.2       1 UNK         0.5006 
     36 O          26.7363   22.2469   -0.6715 O.2       1 UNK        -0.5103 
     37 C          29.9584   29.5197    4.1612 C.2       5 UNK         0.5055 
     38 O          30.0715   30.5242    3.4497 O.2       5 UNK        -0.5220 
     39 N          30.4957   29.3943    5.3859 N.am      6 UNK        -0.4450 
     40 CA         31.3654   30.3453    6.0921 C.3       6 UNK         0.0367 
     41 CB         31.4567   29.9562    7.5798 C.3       6 UNK        -0.1929 
     42 C          30.9521   31.8195    5.9591 C.2       6 UNK         0.5070 
     43 O          31.7189   32.6262    5.4323 O.2       6 UNK        -0.5237 
     44 N          29.7301   32.1235    6.4128 N.am      7 UNK        -0.4739 
     45 CA         29.1557   33.4702    6.4206 C.3       7 UNK         0.0276 
     46 CB         27.9798   33.4997    7.4114 C.3       7 UNK        -0.1927 
     47 C          28.7041   33.9698    5.0368 C.2       7 UNK         0.5013 
     48 O          28.4757   35.1715    4.8906 O.2       7 UNK        -0.5193 
     49 N          28.5588   33.0616    4.0612 N.am      8 UNK        -0.4253 
     50 CA         28.1532   33.3897    2.6966 C.3       8 UNK         0.0242 
     51 CB         27.4508   32.1882    2.0401 C.3       8 UNK        -0.2000 
     52 C          29.3521   33.8746    1.8720 C.2       8 UNK         0.4948 
     53 O          29.3229   35.0074    1.3886 O.2       8 UNK        -0.5275 
     54 N          30.3808   33.0257    1.7300 N.am      9 UNK        -0.4246 
     55 CA         31.5729   33.3152    0.9231 C.3       9 UNK         0.0261 
     56 CB         31.2226   33.3184   -0.5848 C.3       9 UNK        -0.1959 
     57 C          32.7347   32.3587    1.2449 C.2       9 UNK         0.5033 
     58 O          33.4700   31.9862    0.3280 O.2       9 UNK        -0.5390 
     59 N          32.8813   31.9824    2.5262 N.am      10 UNK        -0.4215 
     60 CA         33.7869   30.9538    3.0652 C.3       10 UNK         0.0240 
     61 CB         35.2615   31.2086    2.6871 C.3       10 UNK        -0.1982 
     62 C          33.3439   29.5245    2.6918 C.2       10 UNK         0.4970 
     63 O          32.6757   29.3230    1.6785 O.2       10 UNK        -0.4916 
     64 N          33.7142   28.5540    3.5365 N.am      11 UNK        -0.4279 
     65 CA         33.3729   27.1309    3.3799 C.3       11 UNK         0.1003 
     66 C          33.9715   26.5196    2.0846 C.2       11 UNK         0.5709 
     67 N          33.1338   26.0624    1.1664 N.am      11 UNK        -0.7358 
     68 O          35.1882   26.4298    1.9297 O.2       11 UNK        -0.4999 
     69 C69        33.7970   26.3076    4.6218 C.3       12 UNK        -0.0954 
     70 S70        32.8870   26.8119    6.1172 S.3       12 UNK        -0.2268 
     71 C71        32.1034   25.2573    6.6457 C.3       12 UNK         0.0203 
     72 H72        26.0820   20.4675    3.3823 H         1 UNK         0.0888 
     73 H73        24.6554   19.9808    2.4646 H         1 UNK         0.0888 
     74 H74        25.7022   18.7554    3.1869 H         1 UNK         0.0888 
     75 H75        27.7057   21.1848    2.0165 H         1 UNK         0.3017 
     76 H76        28.5175   19.6550   -0.3303 H         1 UNK         0.0873 
     77 H77        30.3092   20.4640    1.0788 H         1 UNK         0.0745 
     78 H78        30.4041   21.2885   -0.4383 H         1 UNK         0.0745 
     79 H79        29.5008   21.4803    3.3122 H         1 UNK         0.0705 
     80 H80        31.1788   21.8919    3.0505 H         1 UNK         0.0705 
     81 H81        32.0595   23.3919    4.6550 H         1 UNK         0.1334 
     82 H82        29.5457   26.1981    6.7030 H         1 UNK         0.1417 
     83 H83        27.9106   23.7045    3.6204 H         1 UNK         0.1562 
     84 H84        27.1414   26.1430    6.3508 H         1 UNK         0.0748 
     85 H85        26.4611   24.8492    5.4037 H         1 UNK         0.0748 
     86 H86        27.9637   28.2552    5.5594 H         1 UNK         0.0940 
     87 H87        27.1785   29.1599    4.2974 H         1 UNK         0.0940 
     88 H88        29.6766   27.4196    3.8821 H         1 UNK         0.0703 
     89 H89        28.1882   29.1400    1.9711 H         1 UNK         0.3081 
     90 H90        28.1541   28.3120   -0.2541 H         1 UNK         0.0719 
     91 H91        30.9384   29.6077   -0.3959 H         1 UNK         0.0809 
     92 H92        29.5835   29.9599   -1.4690 H         1 UNK         0.0809 
     93 H93        29.4975   30.3852    0.2304 H         1 UNK         0.0809 
     94 H94        30.5962   27.5282   -1.6039 H         1 UNK         0.2990 
     95 H95        30.1043   25.6771   -3.2517 H         1 UNK         0.0690 
     96 H96        31.9940   24.2172   -2.4279 H         1 UNK         0.0788 
     97 H97        31.4153   24.4183   -0.7742 H         1 UNK         0.0788 
     98 H98        32.0209   25.7996   -1.6766 H         1 UNK         0.0788 
     99 H99        29.6617   23.1137   -1.9236 H         1 UNK         0.2993 
    100 H100       26.6385   22.3310   -3.3120 H         1 UNK         0.0949 
    101 H101       27.7564   22.0946   -5.5270 H         1 UNK         0.0767 
    102 H102       29.1783   21.3986   -4.7627 H         1 UNK         0.0767 
    103 H103       27.6384   20.5375   -4.7260 H         1 UNK         0.0767 
    104 H104       28.9199   20.7593   -2.4021 H         1 UNK         0.3013 
    105 H105       30.3462   28.5215    5.8698 H         1 UNK         0.3121 
    106 H106       32.3621   30.2384    5.6694 H         1 UNK         0.0774 
    107 H107       32.0723   30.6676    8.1325 H         1 UNK         0.0815 
    108 H108       30.4775   29.9337    8.0592 H         1 UNK         0.0815 
    109 H109       31.9113   28.9768    7.7160 H         1 UNK         0.0815 
    110 H110       29.1651   31.3857    6.8080 H         1 UNK         0.2987 
    111 H111       29.9197   34.1651    6.7769 H         1 UNK         0.0949 
    112 H112       27.1820   32.8186    7.1124 H         1 UNK         0.0806 
    113 H113       28.2996   33.2242    8.4166 H         1 UNK         0.0806 
    114 H114       27.5470   34.4992    7.4755 H         1 UNK         0.0806 
    115 H115       28.8526   32.1091    4.2363 H         1 UNK         0.3010 
    116 H116       27.4263   34.2047    2.7326 H         1 UNK         0.0829 
    117 H117       26.5605   31.8991    2.5988 H         1 UNK         0.0813 
    118 H118       27.1307   32.4337    1.0265 H         1 UNK         0.0813 
    119 H119       28.0987   31.3174    1.9723 H         1 UNK         0.0813 
    120 H120       30.3377   32.1132    2.1781 H         1 UNK         0.3038 
    121 H121       31.9267   34.3130    1.1906 H         1 UNK         0.0769 
    122 H122       30.4482   34.0460   -0.8254 H         1 UNK         0.0811 
    123 H123       30.8754   32.3397   -0.9154 H         1 UNK         0.0811 
    124 H124       32.0914   33.5781   -1.1910 H         1 UNK         0.0811 
    125 H125       32.2325   32.3594    3.2074 H         1 UNK         0.3204 
    126 H126       33.7191   31.0542    4.1468 H         1 UNK         0.0748 
    127 H127       35.5532   32.2385    2.8932 H         1 UNK         0.0771 
    128 H128       35.9266   30.5629    3.2615 H         1 UNK         0.0771 
    129 H129       35.4568   31.0071    1.6336 H         1 UNK         0.0771 
    130 H130       34.2849   28.7806    4.3365 H         1 UNK         0.2980 
    131 H131       32.2857   27.0726    3.3126 H         1 UNK         0.0545 
    132 H132       33.4974   25.6479    0.3252 H         1 UNK         0.3459 
    133 H133       32.1343   26.2303    1.2722 H         1 UNK         0.3459 
    134 H134       33.6336   25.2434    4.4474 H         1 UNK         0.0616 
    135 H135       34.8656   26.4202    4.8132 H         1 UNK         0.0616 
    136 H136       31.7500   25.3802    7.6705 H         1 UNK         0.0634 
    137 H137       32.8543   24.4663    6.6807 H         1 UNK         0.0634 
@<TRIPOS>BOND
     1    1    2 1    
     2    1   72 1    
     3    1   73 1    
     4    1   74 1    
     5    2    3 2    
     6    2    4 am   BACKBONE|DICT|INTERRES
     7    4    5 1    
     8    4   75 1    
     9    5    6 1    
    10    5   35 1    
    11    5   76 1    
    12    6    7 1    
    13    6   77 1    
    14    6   78 1    
    15    7    8 1    
    16    8    9 1    
    17    8   79 1    
    18    8   80 1    
    19    9   10 ar   
    20    9   14 ar   
    21   10   11 ar   
    22   10   81 1    
    23   11   12 ar   
    24   11   71 1    
    25   12   13 ar   
    26   12   82 1    
    27   13   14 ar   
    28   13   15 1    
    29   14   83 1    
    30   15   16 1    
    31   15   84 1    
    32   15   85 1    
    33   16   17 1    
    34   17   18 1    
    35   17   86 1    
    36   17   87 1    
    37   18   19 1    
    38   18   37 1    
    39   18   88 1    
    40   19   20 am   BACKBONE|DICT|INTERRES
    41   19   89 1    
    42   20   21 2    
    43   20   22 1    
    44   22   23 1    
    45   22   24 1    
    46   22   90 1    
    47   23   91 1    
    48   23   92 1    
    49   23   93 1    
    50   24   25 am   BACKBONE|DICT|INTERRES
    51   24   94 1    
    52   25   26 2    
    53   25   27 1    
    54   27   28 1    
    55   27   29 1    
    56   27   95 1    
    57   28   96 1    
    58   28   97 1    
    59   28   98 1    
    60   29   30 am   BACKBONE|DICT|INTERRES
    61   29   99 1    
    62   30   31 2    
    63   30   32 1    
    64   32   33 1    
    65   32   34 1    
    66   32  100 1    
    67   33  101 1    
    68   33  102 1    
    69   33  103 1    
    70   34   35 am   BACKBONE|DICT|INTERRES
    71   34  104 1    
    72   35   36 2    
    73   37   38 2    
    74   37   39 am   BACKBONE|DICT|INTERRES
    75   39   40 1    
    76   39  105 1    
    77   40   41 1    
    78   40   42 1    
    79   40  106 1    
    80   41  107 1    
    81   41  108 1    
    82   41  109 1    
    83   42   43 2    
    84   42   44 am   BACKBONE|DICT|INTERRES
    85   44   45 1    
    86   44  110 1    
    87   45   46 1    
    88   45   47 1    
    89   45  111 1    
    90   46  112 1    
    91   46  113 1    
    92   46  114 1    
    93   47   48 2    
    94   47   49 am   BACKBONE|DICT|INTERRES
    95   49   50 1    
    96   49  115 1    
    97   50   51 1    
    98   50   52 1    
    99   50  116 1    
   100   51  117 1    
   101   51  118 1    
   102   51  119 1    
   103   52   53 2    
   104   52   54 am   BACKBONE|DICT|INTERRES
   105   54   55 1    
   106   54  120 1    
   107   55   56 1    
   108   55   57 1    
   109   55  121 1    
   110   56  122 1    
   111   56  123 1    
   112   56  124 1    
   113   57   58 2    
   114   57   59 am   BACKBONE|DICT|INTERRES
   115   59   60 1    
   116   59  125 1    
   117   60   61 1    
   118   60   62 1    
   119   60  126 1    
   120   61  127 1    
   121   61  128 1    
   122   61  129 1    
   123   62   63 2    
   124   62   64 am   BACKBONE|DICT|INTERRES
   125   64   65 1    
   126   64  130 1    
   127   65   66 1    
   128   65   69 1    
   129   65  131 1    
   130   66   67 am   BACKBONE|DICT|INTERRES
   131   66   68 2    
   132   67  132 1    
   133   67  133 1    
   134   69   70 1    
   135   69  134 1    
   136   69  135 1    
   137   70   71 1    
   138   71  136 1    
   139   71  137 1    
@<TRIPOS>SUBSTRUCTURE
     1 UNK         1 GROUP             0       ****    0 ROOT    
