@<TRIPOS>MOLECULE
3R136
137   139    1
SMALL
USER_CHARGES


@<TRIPOS>ATOM
      1 CA         25.9478   21.7765    1.6525 C.3       0 UNK        -0.1979 
      2 C          27.0774   22.6746    2.1324 C.2       0 UNK         0.4864 
      3 O          26.9875   23.2311    3.2276 O.2       0 UNK        -0.5359 
      4 N          28.1312   22.8300    1.3174 N.am      1 UNK        -0.4318 
      5 CA         29.3349   23.6281    1.5890 C.3       1 UNK         0.0824 
      6 C6         30.2683   22.9691    2.6460 C.3       12 UNK        -0.0944 
      7 S7         31.0382   21.4559    1.9701 S.3       12 UNK        -0.2672 
      8 C8         32.7389   22.0050    1.5850 C.3       12 UNK         0.0333 
      9 C9         32.7696   23.3349    0.8423 C.ar      12 UNK        -0.0807 
     10 C10        33.2805   24.4745    1.4705 C.ar      12 UNK        -0.0894 
     11 C11        33.2467   25.7143    0.8281 C.ar      12 UNK        -0.0804 
     12 C12        32.6808   25.8153   -0.4452 C.ar      12 UNK        -0.0824 
     13 C13        32.1677   24.6822   -1.0850 C.ar      12 UNK        -0.0762 
     14 C14        32.2464   23.4384   -0.4502 C.ar      12 UNK        -0.0782 
     15 C15        31.5032   24.8011   -2.4483 C.3       12 UNK         0.0230 
     16 S16        29.6929   24.6260   -2.3033 S.3       12 UNK        -0.2608 
     17 C17        29.0596   26.0811   -3.2179 C.3       12 UNK        -0.0989 
     18 CA         28.4194   27.1782   -2.3192 C.3       5 UNK         0.0716 
     19 N          27.4022   26.6374   -1.4096 N.am      5 UNK        -0.4135 
     20 C          26.1100   26.4821   -1.7123 C.2       4 UNK         0.5031 
     21 O          25.6048   26.8958   -2.7569 O.2       4 UNK        -0.5229 
     22 CA         25.2214   25.7188   -0.7175 C.3       4 UNK         0.0329 
     23 CB         25.3064   24.2078   -0.9908 C.3       4 UNK        -0.2001 
     24 N          25.5227   25.9765    0.6998 N.am      4 UNK        -0.4303 
     25 C          24.5783   26.2265    1.6245 C.2       3 UNK         0.5044 
     26 O          23.3876   26.3784    1.3456 O.2       3 UNK        -0.5152 
     27 CA         24.9774   26.2937    3.1138 C.3       3 UNK         0.0319 
     28 CB         24.2525   25.1978    3.9153 C.3       3 UNK        -0.2001 
     29 N          26.4175   26.1597    3.3368 N.am      3 UNK        -0.4354 
     30 C          27.2561   27.1887    3.5283 C.2       2 UNK         0.4964 
     31 O          26.8763   28.3534    3.6408 O.2       2 UNK        -0.5047 
     32 CA         28.7718   26.8940    3.5911 C.3       2 UNK         0.0288 
     33 CB         29.3138   27.0963    5.0145 C.3       2 UNK        -0.2113 
     34 N          29.1606   25.5610    3.1200 N.am      2 UNK        -0.4145 
     35 C          28.9632   25.0954    1.8791 C.2       1 UNK         0.5006 
     36 O          28.4321   25.7596    0.9865 O.2       1 UNK        -0.5103 
     37 C          29.4316   28.0366   -1.5371 C.2       5 UNK         0.5055 
     38 O          30.6243   28.0197   -1.8405 O.2       5 UNK        -0.5220 
     39 N          28.9208   28.7636   -0.5339 N.am      6 UNK        -0.4450 
     40 CA         29.6549   29.5465    0.4583 C.3       6 UNK         0.0367 
     41 CB         28.6359   30.3233    1.3077 C.3       6 UNK        -0.1929 
     42 C          30.6897   30.5229   -0.1254 C.2       6 UNK         0.5070 
     43 O          30.3128   31.4686   -0.8206 O.2       6 UNK        -0.5237 
     44 N          31.9628   30.3154    0.2328 N.am      7 UNK        -0.4739 
     45 CA         33.0280   31.3137    0.0830 C.3       7 UNK         0.0276 
     46 CB         34.3890   30.6007    0.0450 C.3       7 UNK        -0.1927 
     47 C          32.9921   32.3455    1.2280 C.2       7 UNK         0.5013 
     48 O          33.4724   33.4664    1.0597 O.2       7 UNK        -0.5193 
     49 N          32.4110   31.9398    2.3613 N.am      8 UNK        -0.4253 
     50 CA         32.1513   32.6974    3.5758 C.3       8 UNK         0.0242 
     51 CB         33.4368   32.8316    4.4136 C.3       8 UNK        -0.2000 
     52 C          31.0650   31.9268    4.3371 C.2       8 UNK         0.4948 
     53 O          30.8630   30.7383    4.0672 O.2       8 UNK        -0.5275 
     54 N          30.4031   32.5997    5.2871 N.am      9 UNK        -0.4246 
     55 CA         29.2457   32.0979    6.0446 C.3       9 UNK         0.0261 
     56 CB         28.7272   33.2193    6.9609 C.3       9 UNK        -0.1959 
     57 C          29.4736   30.8064    6.8577 C.2       9 UNK         0.5033 
     58 O          28.4953   30.1547    7.2258 O.2       9 UNK        -0.5390 
     59 N          30.7372   30.4573    7.1214 N.am      10 UNK        -0.4215 
     60 CA         31.1525   29.2168    7.7707 C.3       10 UNK         0.0240 
     61 CB         31.1958   29.4141    9.2998 C.3       10 UNK        -0.1982 
     62 C          32.4880   28.7419    7.1761 C.2       10 UNK         0.4970 
     63 O          33.4050   28.4107    7.9301 O.2       10 UNK        -0.4916 
     64 N          32.5958   28.7540    5.8384 N.am      11 UNK        -0.4279 
     65 CA         33.7905   28.3043    5.1058 C.3       11 UNK         0.1003 
     66 C          34.1173   26.7906    5.2814 C.2       11 UNK         0.5709 
     67 N          35.3619   26.3978    5.0432 N.am      11 UNK        -0.7358 
     68 O          33.2574   25.9708    5.5999 O.2       11 UNK        -0.4999 
     69 C69        33.7567   28.7537    3.6193 C.3       12 UNK        -0.0954 
     70 S70        32.6230   27.8087    2.5396 S.3       12 UNK        -0.2268 
     71 C71        33.8423   26.9341    1.5087 C.3       12 UNK         0.0203 
     72 H72        26.1006   21.4397    0.6273 H         1 UNK         0.0888 
     73 H73        25.8732   20.8976    2.2922 H         1 UNK         0.0888 
     74 H74        24.9993   22.3106    1.6971 H         1 UNK         0.0888 
     75 H75        28.1338   22.3554    0.4258 H         1 UNK         0.3017 
     76 H76        29.8697   23.6747    0.6431 H         1 UNK         0.0873 
     77 H77        31.0579   23.6485    2.9697 H         1 UNK         0.0745 
     78 H78        29.7133   22.7021    3.5469 H         1 UNK         0.0745 
     79 H79        33.3034   22.0705    2.5165 H         1 UNK         0.0705 
     80 H80        33.2315   21.2414    0.9815 H         1 UNK         0.0705 
     81 H81        33.6934   24.4031    2.4680 H         1 UNK         0.1334 
     82 H82        32.6375   26.7783   -0.9345 H         1 UNK         0.1417 
     83 H83        31.8400   22.5613   -0.9359 H         1 UNK         0.1562 
     84 H84        31.8845   24.0246   -3.1128 H         1 UNK         0.0748 
     85 H85        31.7642   25.7532   -2.9114 H         1 UNK         0.0748 
     86 H86        28.3005   25.7124   -3.9093 H         1 UNK         0.0940 
     87 H87        29.8365   26.5031   -3.8573 H         1 UNK         0.0940 
     88 H88        27.9365   27.8922   -2.9898 H         1 UNK         0.0703 
     89 H89        27.7715   26.2656   -0.5338 H         1 UNK         0.3081 
     90 H90        24.1998   26.0325   -0.9421 H         1 UNK         0.0719 
     91 H91        26.3042   23.8185   -0.7873 H         1 UNK         0.0809 
     92 H92        24.5928   23.6550   -0.3805 H         1 UNK         0.0809 
     93 H93        25.0774   23.9849   -2.0340 H         1 UNK         0.0809 
     94 H94        26.4934   25.9047    0.9877 H         1 UNK         0.2990 
     95 H95        24.6302   27.2581    3.4902 H         1 UNK         0.0690 
     96 H96        24.5148   25.2405    4.9725 H         1 UNK         0.0788 
     97 H97        24.4959   24.1999    3.5499 H         1 UNK         0.0788 
     98 H98        23.1699   25.3128    3.8475 H         1 UNK         0.0788 
     99 H99        26.7899   25.2143    3.2988 H         1 UNK         0.2993 
    100 H100       29.2600   27.6217    2.9409 H         1 UNK         0.0949 
    101 H101       30.3950   26.9600    5.0499 H         1 UNK         0.0767 
    102 H102       29.1035   28.1067    5.3669 H         1 UNK         0.0767 
    103 H103       28.8612   26.4010    5.7224 H         1 UNK         0.0767 
    104 H104       29.5542   24.9388    3.8105 H         1 UNK         0.3013 
    105 H105       27.9206   28.7244   -0.4069 H         1 UNK         0.3121 
    106 H106       30.1681   28.8334    1.1048 H         1 UNK         0.0774 
    107 H107       29.1254   30.8627    2.1177 H         1 UNK         0.0815 
    108 H108       28.0909   31.0579    0.7133 H         1 UNK         0.0815 
    109 H109       27.9028   29.6592    1.7575 H         1 UNK         0.0815 
    110 H110       32.1885   29.4857    0.7660 H         1 UNK         0.2987 
    111 H111       32.8919   31.8501   -0.8588 H         1 UNK         0.0949 
    112 H112       34.6042   30.0866    0.9820 H         1 UNK         0.0806 
    113 H113       34.4310   29.8673   -0.7606 H         1 UNK         0.0806 
    114 H114       35.1958   31.3150   -0.1251 H         1 UNK         0.0806 
    115 H115       32.0003   31.0141    2.3945 H         1 UNK         0.3010 
    116 H116       31.7694   33.6843    3.3061 H         1 UNK         0.0829 
    117 H117       33.8198   31.8611    4.7303 H         1 UNK         0.0813 
    118 H118       34.2257   33.3336    3.8533 H         1 UNK         0.0813 
    119 H119       33.2591   33.4212    5.3136 H         1 UNK         0.0813 
    120 H120       30.6568   33.5632    5.4551 H         1 UNK         0.3038 
    121 H121       28.4658   31.8681    5.3154 H         1 UNK         0.0769 
    122 H122       29.4778   33.5209    7.6926 H         1 UNK         0.0811 
    123 H123       27.8445   32.8964    7.5149 H         1 UNK         0.0811 
    124 H124       28.4398   34.1014    6.3884 H         1 UNK         0.0811 
    125 H125       31.4782   31.0488    6.7720 H         1 UNK         0.3204 
    126 H126       30.4275   28.4308    7.5494 H         1 UNK         0.0748 
    127 H127       31.4777   28.4907    9.8075 H         1 UNK         0.0771 
    128 H128       31.9170   30.1807    9.5856 H         1 UNK         0.0771 
    129 H129       30.2212   29.7098    9.6887 H         1 UNK         0.0771 
    130 H130       31.8102   29.0485    5.2716 H         1 UNK         0.2980 
    131 H131       34.6233   28.8406    5.5655 H         1 UNK         0.0545 
    132 H132       35.5926   25.4223    5.1453 H         1 UNK         0.3459 
    133 H133       36.0780   27.0561    4.7800 H         1 UNK         0.3459 
    134 H134       33.4765   29.8028    3.5640 H         1 UNK         0.0616 
    135 H135       34.7655   28.7154    3.2058 H         1 UNK         0.0616 
    136 H136       34.6867   26.6203    2.1242 H         1 UNK         0.0634 
    137 H137       34.2458   27.6216    0.7645 H         1 UNK         0.0634 
@<TRIPOS>BOND
     1    1    2 1    
     2    1   72 1    
     3    1   73 1    
     4    1   74 1    
     5    2    3 2    
     6    2    4 am   BACKBONE|DICT|INTERRES
     7    4    5 1    
     8    4   75 1    
     9    5    6 1    
    10    5   35 1    
    11    5   76 1    
    12    6    7 1    
    13    6   77 1    
    14    6   78 1    
    15    7    8 1    
    16    8    9 1    
    17    8   79 1    
    18    8   80 1    
    19    9   10 ar   
    20    9   14 ar   
    21   10   11 ar   
    22   10   81 1    
    23   11   12 ar   
    24   11   71 1    
    25   12   13 ar   
    26   12   82 1    
    27   13   14 ar   
    28   13   15 1    
    29   14   83 1    
    30   15   16 1    
    31   15   84 1    
    32   15   85 1    
    33   16   17 1    
    34   17   18 1    
    35   17   86 1    
    36   17   87 1    
    37   18   19 1    
    38   18   37 1    
    39   18   88 1    
    40   19   20 am   BACKBONE|DICT|INTERRES
    41   19   89 1    
    42   20   21 2    
    43   20   22 1    
    44   22   23 1    
    45   22   24 1    
    46   22   90 1    
    47   23   91 1    
    48   23   92 1    
    49   23   93 1    
    50   24   25 am   BACKBONE|DICT|INTERRES
    51   24   94 1    
    52   25   26 2    
    53   25   27 1    
    54   27   28 1    
    55   27   29 1    
    56   27   95 1    
    57   28   96 1    
    58   28   97 1    
    59   28   98 1    
    60   29   30 am   BACKBONE|DICT|INTERRES
    61   29   99 1    
    62   30   31 2    
    63   30   32 1    
    64   32   33 1    
    65   32   34 1    
    66   32  100 1    
    67   33  101 1    
    68   33  102 1    
    69   33  103 1    
    70   34   35 am   BACKBONE|DICT|INTERRES
    71   34  104 1    
    72   35   36 2    
    73   37   38 2    
    74   37   39 am   BACKBONE|DICT|INTERRES
    75   39   40 1    
    76   39  105 1    
    77   40   41 1    
    78   40   42 1    
    79   40  106 1    
    80   41  107 1    
    81   41  108 1    
    82   41  109 1    
    83   42   43 2    
    84   42   44 am   BACKBONE|DICT|INTERRES
    85   44   45 1    
    86   44  110 1    
    87   45   46 1    
    88   45   47 1    
    89   45  111 1    
    90   46  112 1    
    91   46  113 1    
    92   46  114 1    
    93   47   48 2    
    94   47   49 am   BACKBONE|DICT|INTERRES
    95   49   50 1    
    96   49  115 1    
    97   50   51 1    
    98   50   52 1    
    99   50  116 1    
   100   51  117 1    
   101   51  118 1    
   102   51  119 1    
   103   52   53 2    
   104   52   54 am   BACKBONE|DICT|INTERRES
   105   54   55 1    
   106   54  120 1    
   107   55   56 1    
   108   55   57 1    
   109   55  121 1    
   110   56  122 1    
   111   56  123 1    
   112   56  124 1    
   113   57   58 2    
   114   57   59 am   BACKBONE|DICT|INTERRES
   115   59   60 1    
   116   59  125 1    
   117   60   61 1    
   118   60   62 1    
   119   60  126 1    
   120   61  127 1    
   121   61  128 1    
   122   61  129 1    
   123   62   63 2    
   124   62   64 am   BACKBONE|DICT|INTERRES
   125   64   65 1    
   126   64  130 1    
   127   65   66 1    
   128   65   69 1    
   129   65  131 1    
   130   66   67 am   BACKBONE|DICT|INTERRES
   131   66   68 2    
   132   67  132 1    
   133   67  133 1    
   134   69   70 1    
   135   69  134 1    
   136   69  135 1    
   137   70   71 1    
   138   71  136 1    
   139   71  137 1    
@<TRIPOS>SUBSTRUCTURE
     1 UNK         1 GROUP             0       ****    0 ROOT    
