@<TRIPOS>MOLECULE
3R136
137   139    1
SMALL
USER_CHARGES


@<TRIPOS>ATOM
      1 CA         27.9664   27.7776   -2.4161 C.3       0 UNK        -0.1979 
      2 C          28.0340   26.6925   -1.3524 C.2       0 UNK         0.4864 
      3 O          27.1865   26.6643   -0.4564 O.2       0 UNK        -0.5359 
      4 N          29.0404   25.8108   -1.4503 N.am      1 UNK        -0.4318 
      5 CA         29.3266   24.6786   -0.5589 C.3       1 UNK         0.0824 
      6 C6         30.5970   23.9209   -1.0456 C.3       12 UNK        -0.0944 
      7 S7         30.9467   22.3263   -0.2195 S.3       12 UNK        -0.2672 
      8 C8         32.3828   22.7361    0.8173 C.3       12 UNK         0.0333 
      9 C9         32.0350   23.7396    1.9060 C.ar      12 UNK        -0.0807 
     10 C10        32.6079   25.0141    1.8965 C.ar      12 UNK        -0.0894 
     11 C11        32.3221   25.9275    2.9146 C.ar      12 UNK        -0.0804 
     12 C12        31.4465   25.5626    3.9411 C.ar      12 UNK        -0.0824 
     13 C13        30.8618   24.2916    3.9582 C.ar      12 UNK        -0.0762 
     14 C14        31.1623   23.3840    2.9388 C.ar      12 UNK        -0.0782 
     15 C15        29.9270   23.8838    5.0888 C.3       12 UNK         0.0230 
     16 S16        28.1734   24.0819    4.6355 S.3       12 UNK        -0.2608 
     17 C17        28.0395   25.8958    4.5144 C.3       12 UNK        -0.0989 
     18 CA         27.8613   26.3619    3.0412 C.3       5 UNK         0.0716 
     19 N          26.5585   25.9764    2.4653 N.am      5 UNK        -0.4135 
     20 C          25.3693   26.4734    2.8477 C.2       4 UNK         0.5031 
     21 O          25.2399   27.2408    3.8038 O.2       4 UNK        -0.5229 
     22 CA         24.1150   26.1003    2.0363 C.3       4 UNK         0.0329 
     23 CB         23.0475   27.2210    2.1089 C.3       4 UNK        -0.2001 
     24 N          24.4102   25.7707    0.6366 N.am      4 UNK        -0.4303 
     25 C          23.5359   25.1653   -0.1821 C.2       3 UNK         0.5044 
     26 O          22.4265   24.7613    0.1704 O.2       3 UNK        -0.5152 
     27 CA         23.9658   24.9691   -1.6432 C.3       3 UNK         0.0319 
     28 CB         24.1707   26.3155   -2.3590 C.3       3 UNK        -0.2001 
     29 N          25.1722   24.1515   -1.7412 N.am      3 UNK        -0.4354 
     30 C          25.2221   22.8386   -1.4685 C.2       2 UNK         0.4964 
     31 O          24.2364   22.1611   -1.1748 O.2       2 UNK        -0.5047 
     32 CA         26.5960   22.1499   -1.5457 C.3       2 UNK         0.0288 
     33 CB         26.7087   21.3117   -2.8301 C.3       2 UNK        -0.2113 
     34 N          27.7293   23.0748   -1.4818 N.am      2 UNK        -0.4145 
     35 C          28.0892   23.7710   -0.3943 C.2       1 UNK         0.5006 
     36 O          27.4719   23.7578    0.6729 O.2       1 UNK        -0.5103 
     37 C          28.1422   27.8739    2.8485 C.2       5 UNK         0.5055 
     38 O          28.6909   28.5293    3.7357 O.2       5 UNK        -0.5220 
     39 N          27.7313   28.4050    1.6899 N.am      6 UNK        -0.4450 
     40 CA         27.7262   29.8311    1.3614 C.3       6 UNK         0.0367 
     41 CB         26.4640   30.1294    0.5327 C.3       6 UNK        -0.1929 
     42 C          28.9933   30.2904    0.6200 C.2       6 UNK         0.5070 
     43 O          29.0819   31.4646    0.2580 O.2       6 UNK        -0.5237 
     44 N          29.9516   29.3820    0.3902 N.am      7 UNK        -0.4739 
     45 CA         31.2157   29.6255   -0.3145 C.3       7 UNK         0.0276 
     46 CB         31.7649   28.2796   -0.8263 C.3       7 UNK        -0.1927 
     47 C          32.2352   30.4174    0.5355 C.2       7 UNK         0.5013 
     48 O          33.3400   29.9320    0.7802 O.2       7 UNK        -0.5193 
     49 N          31.8296   31.6273    0.9454 N.am      8 UNK        -0.4253 
     50 CA         32.4992   32.5973    1.8212 C.3       8 UNK         0.0242 
     51 CB         33.9361   32.9102    1.3521 C.3       8 UNK        -0.2000 
     52 C          32.4662   32.1968    3.3070 C.2       8 UNK         0.4948 
     53 O          32.3551   31.0187    3.6506 O.2       8 UNK        -0.5275 
     54 N          32.5831   33.2118    4.1742 N.am      9 UNK        -0.4246 
     55 CA         32.5569   33.0811    5.6363 C.3       9 UNK         0.0261 
     56 CB         32.2990   34.4648    6.2562 C.3       9 UNK        -0.1959 
     57 C          33.8271   32.4515    6.2392 C.2       9 UNK         0.5033 
     58 O          33.8096   32.0809    7.4142 O.2       9 UNK        -0.5390 
     59 N          34.8979   32.3311    5.4398 N.am      10 UNK        -0.4215 
     60 CA         36.2038   31.7741    5.8132 C.3       10 UNK         0.0240 
     61 CB         37.1501   31.8690    4.6049 C.3       10 UNK        -0.1982 
     62 C          36.1632   30.3299    6.3491 C.2       10 UNK         0.4970 
     63 O          37.0612   29.9470    7.1004 O.2       10 UNK        -0.4916 
     64 N          35.1288   29.5672    5.9742 N.am      11 UNK        -0.4279 
     65 CA         34.8442   28.2242    6.5007 C.3       11 UNK         0.1003 
     66 C          34.3231   28.2074    7.9689 C.2       11 UNK         0.5709 
     67 N          33.9426   29.3334    8.5636 N.am      11 UNK        -0.7358 
     68 O          34.2714   27.1460    8.5857 O.2       11 UNK        -0.4999 
     69 C69        33.8896   27.4337    5.5697 C.3       12 UNK        -0.0954 
     70 S70        34.5222   27.3056    3.8640 S.3       12 UNK        -0.2268 
     71 C71        32.9762   27.3003    2.9071 C.3       12 UNK         0.0203 
     72 H72        28.1958   28.7481   -1.9789 H         1 UNK         0.0888 
     73 H73        28.6723   27.5980   -3.2266 H         1 UNK         0.0888 
     74 H74        26.9673   27.8255   -2.8466 H         1 UNK         0.0888 
     75 H75        29.6802   25.9085   -2.2256 H         1 UNK         0.3017 
     76 H76        29.5499   25.0901    0.4266 H         1 UNK         0.0873 
     77 H77        31.4673   24.5721   -0.9494 H         1 UNK         0.0745 
     78 H78        30.5174   23.7050   -2.1124 H         1 UNK         0.0745 
     79 H79        32.7533   21.8214    1.2822 H         1 UNK         0.0705 
     80 H80        33.1906   23.1050    0.1832 H         1 UNK         0.0705 
     81 H81        33.2917   25.2918    1.1059 H         1 UNK         0.1334 
     82 H82        31.2325   26.2667    4.7327 H         1 UNK         0.1417 
     83 H83        30.7168   22.3983    2.9482 H         1 UNK         0.1562 
     84 H84        30.1394   24.4592    5.9913 H         1 UNK         0.0748 
     85 H85        30.1047   22.8395    5.3502 H         1 UNK         0.0748 
     86 H86        28.9240   26.3402    4.9699 H         1 UNK         0.0940 
     87 H87        27.2075   26.2265    5.1366 H         1 UNK         0.0940 
     88 H88        28.6197   25.8564    2.4430 H         1 UNK         0.0703 
     89 H89        26.6077   25.3007    1.7088 H         1 UNK         0.3081 
     90 H90        23.7077   25.2068    2.5137 H         1 UNK         0.0719 
     91 H91        22.1217   26.9438    1.6061 H         1 UNK         0.0809 
     92 H92        23.4098   28.1437    1.6543 H         1 UNK         0.0809 
     93 H93        22.7780   27.4487    3.1410 H         1 UNK         0.0809 
     94 H94        25.3076   26.0716    0.2682 H         1 UNK         0.2990 
     95 H95        23.1612   24.4412   -2.1603 H         1 UNK         0.0690 
     96 H96        24.4572   26.1725   -3.4010 H         1 UNK         0.0788 
     97 H97        24.9351   26.9260   -1.8805 H         1 UNK         0.0788 
     98 H98        23.2479   26.8971   -2.3553 H         1 UNK         0.0788 
     99 H99        26.0342   24.6295   -1.9550 H         1 UNK         0.2993 
    100 H100       26.6651   21.4765   -0.6883 H         1 UNK         0.0949 
    101 H101       27.6446   20.7530   -2.8587 H         1 UNK         0.0767 
    102 H102       25.8982   20.5841   -2.8946 H         1 UNK         0.0767 
    103 H103       26.6596   21.9342   -3.7246 H         1 UNK         0.0767 
    104 H104       28.2896   23.1602   -2.3171 H         1 UNK         0.3013 
    105 H105       27.3530   27.7778    0.9814 H         1 UNK         0.3121 
    106 H106       27.6686   30.4148    2.2826 H         1 UNK         0.0774 
    107 H107       26.3923   31.1905    0.2902 H         1 UNK         0.0815 
    108 H108       26.4549   29.5777   -0.4075 H         1 UNK         0.0815 
    109 H109       25.5606   29.8645    1.0825 H         1 UNK         0.0815 
    110 H110       29.8168   28.4571    0.7696 H         1 UNK         0.2987 
    111 H111       31.0061   30.2415   -1.1921 H         1 UNK         0.0949 
    112 H112       31.8865   27.5551   -0.0218 H         1 UNK         0.0806 
    113 H113       31.1005   27.8434   -1.5707 H         1 UNK         0.0806 
    114 H114       32.7367   28.4052   -1.3059 H         1 UNK         0.0806 
    115 H115       30.8705   31.8640    0.7002 H         1 UNK         0.3010 
    116 H116       31.9129   33.5126    1.7237 H         1 UNK         0.0829 
    117 H117       33.9634   33.1517    0.2896 H         1 UNK         0.0813 
    118 H118       34.3459   33.7677    1.8867 H         1 UNK         0.0813 
    119 H119       34.6139   32.0731    1.5231 H         1 UNK         0.0813 
    120 H120       32.6738   34.1509    3.8121 H         1 UNK         0.3038 
    121 H121       31.7222   32.4287    5.9021 H         1 UNK         0.0769 
    122 H122       32.2336   34.4003    7.3434 H         1 UNK         0.0811 
    123 H123       31.3589   34.8897    5.9038 H         1 UNK         0.0811 
    124 H124       33.0975   35.1693    6.0201 H         1 UNK         0.0811 
    125 H125       34.8063   32.6619    4.4911 H         1 UNK         0.3204 
    126 H126       36.6041   32.4000    6.6133 H         1 UNK         0.0748 
    127 H127       38.1417   31.4879    4.8537 H         1 UNK         0.0771 
    128 H128       36.7814   31.2888    3.7578 H         1 UNK         0.0771 
    129 H129       37.2762   32.9012    4.2774 H         1 UNK         0.0771 
    130 H130       34.4397   29.9532    5.3453 H         1 UNK         0.2980 
    131 H131       35.7917   27.6823    6.5212 H         1 UNK         0.0545 
    132 H132       33.9746   30.2246    8.0788 H         1 UNK         0.3459 
    133 H133       33.6142   29.2964    9.5151 H         1 UNK         0.3459 
    134 H134       32.9081   27.9107    5.5568 H         1 UNK         0.0616 
    135 H135       33.7366   26.4190    5.9421 H         1 UNK         0.0616 
    136 H136       32.2908   28.0644    3.2777 H         1 UNK         0.0634 
    137 H137       33.2202   27.5813    1.8840 H         1 UNK         0.0634 
@<TRIPOS>BOND
     1    1    2 1    
     2    1   72 1    
     3    1   73 1    
     4    1   74 1    
     5    2    3 2    
     6    2    4 am   BACKBONE|DICT|INTERRES
     7    4    5 1    
     8    4   75 1    
     9    5    6 1    
    10    5   35 1    
    11    5   76 1    
    12    6    7 1    
    13    6   77 1    
    14    6   78 1    
    15    7    8 1    
    16    8    9 1    
    17    8   79 1    
    18    8   80 1    
    19    9   10 ar   
    20    9   14 ar   
    21   10   11 ar   
    22   10   81 1    
    23   11   12 ar   
    24   11   71 1    
    25   12   13 ar   
    26   12   82 1    
    27   13   14 ar   
    28   13   15 1    
    29   14   83 1    
    30   15   16 1    
    31   15   84 1    
    32   15   85 1    
    33   16   17 1    
    34   17   18 1    
    35   17   86 1    
    36   17   87 1    
    37   18   19 1    
    38   18   37 1    
    39   18   88 1    
    40   19   20 am   BACKBONE|DICT|INTERRES
    41   19   89 1    
    42   20   21 2    
    43   20   22 1    
    44   22   23 1    
    45   22   24 1    
    46   22   90 1    
    47   23   91 1    
    48   23   92 1    
    49   23   93 1    
    50   24   25 am   BACKBONE|DICT|INTERRES
    51   24   94 1    
    52   25   26 2    
    53   25   27 1    
    54   27   28 1    
    55   27   29 1    
    56   27   95 1    
    57   28   96 1    
    58   28   97 1    
    59   28   98 1    
    60   29   30 am   BACKBONE|DICT|INTERRES
    61   29   99 1    
    62   30   31 2    
    63   30   32 1    
    64   32   33 1    
    65   32   34 1    
    66   32  100 1    
    67   33  101 1    
    68   33  102 1    
    69   33  103 1    
    70   34   35 am   BACKBONE|DICT|INTERRES
    71   34  104 1    
    72   35   36 2    
    73   37   38 2    
    74   37   39 am   BACKBONE|DICT|INTERRES
    75   39   40 1    
    76   39  105 1    
    77   40   41 1    
    78   40   42 1    
    79   40  106 1    
    80   41  107 1    
    81   41  108 1    
    82   41  109 1    
    83   42   43 2    
    84   42   44 am   BACKBONE|DICT|INTERRES
    85   44   45 1    
    86   44  110 1    
    87   45   46 1    
    88   45   47 1    
    89   45  111 1    
    90   46  112 1    
    91   46  113 1    
    92   46  114 1    
    93   47   48 2    
    94   47   49 am   BACKBONE|DICT|INTERRES
    95   49   50 1    
    96   49  115 1    
    97   50   51 1    
    98   50   52 1    
    99   50  116 1    
   100   51  117 1    
   101   51  118 1    
   102   51  119 1    
   103   52   53 2    
   104   52   54 am   BACKBONE|DICT|INTERRES
   105   54   55 1    
   106   54  120 1    
   107   55   56 1    
   108   55   57 1    
   109   55  121 1    
   110   56  122 1    
   111   56  123 1    
   112   56  124 1    
   113   57   58 2    
   114   57   59 am   BACKBONE|DICT|INTERRES
   115   59   60 1    
   116   59  125 1    
   117   60   61 1    
   118   60   62 1    
   119   60  126 1    
   120   61  127 1    
   121   61  128 1    
   122   61  129 1    
   123   62   63 2    
   124   62   64 am   BACKBONE|DICT|INTERRES
   125   64   65 1    
   126   64  130 1    
   127   65   66 1    
   128   65   69 1    
   129   65  131 1    
   130   66   67 am   BACKBONE|DICT|INTERRES
   131   66   68 2    
   132   67  132 1    
   133   67  133 1    
   134   69   70 1    
   135   69  134 1    
   136   69  135 1    
   137   70   71 1    
   138   71  136 1    
   139   71  137 1    
@<TRIPOS>SUBSTRUCTURE
     1 UNK         1 GROUP             0       ****    0 ROOT    
