@<TRIPOS>MOLECULE
3R136
137   139    1
SMALL
USER_CHARGES


@<TRIPOS>ATOM
      1 CA         31.2124   25.4551   -0.0654 C.3       0 UNK        -0.1979 
      2 C          29.9834   24.6475    0.3219 C.2       0 UNK         0.4864 
      3 O          28.9346   25.2300    0.6042 O.2       0 UNK        -0.5359 
      4 N          30.1145   23.3131    0.3434 N.am      1 UNK        -0.4318 
      5 CA         29.1173   22.3557    0.8422 C.3       1 UNK         0.0824 
      6 C6         29.6217   20.8884    0.8022 C.3       12 UNK        -0.0944 
      7 S7         31.3395   20.6232    1.3559 S.3       12 UNK        -0.2672 
      8 C8         31.2646   21.0501    3.1264 C.3       12 UNK         0.0333 
      9 C9         31.6490   22.5006    3.4010 C.ar      12 UNK        -0.0807 
     10 C10        32.8378   23.0268    2.8816 C.ar      12 UNK        -0.0894 
     11 C11        33.2238   24.3364    3.1736 C.ar      12 UNK        -0.0804 
     12 C12        32.4209   25.1184    4.0065 C.ar      12 UNK        -0.0824 
     13 C13        31.2324   24.6093    4.5391 C.ar      12 UNK        -0.0762 
     14 C14        30.8487   23.3003    4.2251 C.ar      12 UNK        -0.0782 
     15 C15        30.3940   25.4442    5.5039 C.3       12 UNK         0.0230 
     16 S16        30.1408   27.1644    4.9536 S.3       12 UNK        -0.2608 
     17 C17        28.9908   26.9121    3.5641 C.3       12 UNK        -0.0989 
     18 CA         28.6507   28.2197    2.8014 C.3       5 UNK         0.0716 
     19 N          28.2618   27.9221    1.4154 N.am      5 UNK        -0.4135 
     20 C          27.9753   28.8203    0.4625 C.2       4 UNK         0.5031 
     21 O          28.0398   30.0377    0.6267 O.2       4 UNK        -0.5229 
     22 CA         27.4481   28.2834   -0.8784 C.3       4 UNK         0.0329 
     23 CB         28.6086   28.0022   -1.8440 C.3       4 UNK        -0.2001 
     24 N          26.5975   27.0922   -0.7715 N.am      4 UNK        -0.4303 
     25 C          25.5097   26.9565   -0.0003 C.2       3 UNK         0.5044 
     26 O          25.1284   27.8236    0.7858 O.2       3 UNK        -0.5152 
     27 CA         24.7060   25.6432   -0.0836 C.3       3 UNK         0.0319 
     28 CB         23.3848   25.8611   -0.8467 C.3       3 UNK        -0.2001 
     29 N          25.4277   24.4717   -0.6039 N.am      3 UNK        -0.4354 
     30 C          25.9195   24.2488   -1.8303 C.2       2 UNK         0.4964 
     31 O          25.8860   25.0754   -2.7427 O.2       2 UNK        -0.5047 
     32 CA         26.6064   22.8869   -2.0480 C.3       2 UNK         0.0288 
     33 CB         27.0356   22.6654   -3.5109 C.3       2 UNK        -0.2113 
     34 N          27.7792   22.7331   -1.1851 N.am      2 UNK        -0.4145 
     35 C          27.7550   22.4406    0.1234 C.2       1 UNK         0.5006 
     36 O          26.7164   22.2456    0.7586 O.2       1 UNK        -0.5103 
     37 C          27.6271   29.0866    3.5838 C.2       5 UNK         0.5055 
     38 O          27.9977   29.6927    4.5895 O.2       5 UNK        -0.5220 
     39 N          26.3655   29.1583    3.1281 N.am      6 UNK        -0.4450 
     40 CA         25.3503   30.0546    3.6894 C.3       6 UNK         0.0367 
     41 CB         23.9538   29.5826    3.2533 C.3       6 UNK        -0.1929 
     42 C          25.5581   31.5333    3.3037 C.2       6 UNK         0.5070 
     43 O          25.0159   32.4014    3.9890 O.2       6 UNK        -0.5237 
     44 N          26.3048   31.8010    2.2225 N.am      7 UNK        -0.4739 
     45 CA         26.5618   33.1434    1.6938 C.3       7 UNK         0.0276 
     46 CB         26.0334   33.2252    0.2515 C.3       7 UNK        -0.1927 
     47 C          28.0545   33.5015    1.7402 C.2       7 UNK         0.5013 
     48 O          28.3943   34.6167    2.1389 O.2       7 UNK        -0.5193 
     49 N          28.9160   32.5672    1.3209 N.am      8 UNK        -0.4253 
     50 CA         30.3716   32.7066    1.3122 C.3       8 UNK         0.0242 
     51 CB         30.9477   31.7320    0.2693 C.3       8 UNK        -0.2000 
     52 C          30.9732   32.4222    2.6975 C.2       8 UNK         0.4948 
     53 O          30.3194   31.8140    3.5474 O.2       8 UNK        -0.5275 
     54 N          32.2327   32.8353    2.8866 N.am      9 UNK        -0.4246 
     55 CA         33.0410   32.4869    4.0572 C.3       9 UNK         0.0261 
     56 CB         34.3016   33.3669    4.0838 C.3       9 UNK        -0.1959 
     57 C          33.4230   30.9963    4.0363 C.2       9 UNK         0.5033 
     58 O          33.6783   30.4476    2.9602 O.2       9 UNK        -0.5390 
     59 N          33.4721   30.3765    5.2214 N.am      10 UNK        -0.4215 
     60 CA         33.8450   28.9724    5.3972 C.3       10 UNK         0.0240 
     61 CB         33.4460   28.5120    6.8088 C.3       10 UNK        -0.1982 
     62 C          35.3456   28.7395    5.1519 C.2       10 UNK         0.4970 
     63 O          36.1618   29.6232    5.4235 O.2       10 UNK        -0.4916 
     64 N          35.6720   27.5359    4.6726 N.am      11 UNK        -0.4279 
     65 CA         37.0378   27.0645    4.3963 C.3       11 UNK         0.1003 
     66 C          37.8682   26.6730    5.6553 C.2       11 UNK         0.5709 
     67 N          37.2892   26.6202    6.8495 N.am      11 UNK        -0.7358 
     68 O          39.0676   26.4283    5.5471 O.2       11 UNK        -0.4999 
     69 C69        37.0358   25.9457    3.3169 C.3       12 UNK        -0.0954 
     70 S70        35.9162   24.5561    3.7133 S.3       12 UNK        -0.2268 
     71 C71        34.5139   24.9046    2.6067 C.3       12 UNK         0.0203 
     72 H72        31.1591   25.7491   -1.1128 H         1 UNK         0.0888 
     73 H73        31.2762   26.3569    0.5434 H         1 UNK         0.0888 
     74 H74        32.1292   24.8853    0.0859 H         1 UNK         0.0888 
     75 H75        31.0081   22.9025    0.1114 H         1 UNK         0.3017 
     76 H76        28.9367   22.6219    1.8855 H         1 UNK         0.0873 
     77 H77        28.9672   20.2494    1.3986 H         1 UNK         0.0745 
     78 H78        29.5694   20.4970   -0.2162 H         1 UNK         0.0745 
     79 H79        30.2716   20.8214    3.5165 H         1 UNK         0.0705 
     80 H80        31.9604   20.4059    3.6654 H         1 UNK         0.0705 
     81 H81        33.4714   22.4112    2.2576 H         1 UNK         0.1334 
     82 H82        32.7256   26.1246    4.2521 H         1 UNK         0.1417 
     83 H83        29.9402   22.8930    4.6479 H         1 UNK         0.1562 
     84 H84        30.8997   25.4621    6.4701 H         1 UNK         0.0748 
     85 H85        29.4203   24.9824    5.6751 H         1 UNK         0.0748 
     86 H86        28.0877   26.4091    3.9154 H         1 UNK         0.0940 
     87 H87        29.4841   26.2076    2.8955 H         1 UNK         0.0940 
     88 H88        29.5617   28.8178    2.7253 H         1 UNK         0.0703 
     89 H89        28.2327   26.9378    1.1581 H         1 UNK         0.3081 
     90 H90        26.8306   29.0715   -1.3139 H         1 UNK         0.0719 
     91 H91        29.2276   27.1762   -1.4961 H         1 UNK         0.0809 
     92 H92        28.2435   27.7506   -2.8399 H         1 UNK         0.0809 
     93 H93        29.2541   28.8759   -1.9466 H         1 UNK         0.0809 
     94 H94        26.7899   26.3372   -1.4186 H         1 UNK         0.2990 
     95 H95        24.4492   25.3875    0.9456 H         1 UNK         0.0690 
     96 H96        22.7678   24.9626   -0.8372 H         1 UNK         0.0788 
     97 H97        23.5561   26.1407   -1.8867 H         1 UNK         0.0788 
     98 H98        22.7989   26.6603   -0.3904 H         1 UNK         0.0788 
     99 H99        25.6008   23.7388    0.0789 H         1 UNK         0.2993 
    100 H100       25.8778   22.1135   -1.7944 H         1 UNK         0.0949 
    101 H101       27.7770   23.3986   -3.8315 H         1 UNK         0.0767 
    102 H102       27.4628   21.6723   -3.6526 H         1 UNK         0.0767 
    103 H103       26.1819   22.7478   -4.1851 H         1 UNK         0.0767 
    104 H104       28.6776   22.9135   -1.6090 H         1 UNK         0.3013 
    105 H105       26.0988   28.6391    2.2954 H         1 UNK         0.3121 
    106 H106       25.3997   29.9901    4.7786 H         1 UNK         0.0774 
    107 H107       23.8128   29.6823    2.1764 H         1 UNK         0.0815 
    108 H108       23.1751   30.1734    3.7373 H         1 UNK         0.0815 
    109 H109       23.7830   28.5395    3.5198 H         1 UNK         0.0815 
    110 H110       26.7554   31.0308    1.7380 H         1 UNK         0.2987 
    111 H111       26.0347   33.8953    2.2853 H         1 UNK         0.0949 
    112 H112       26.5080   32.4873   -0.3970 H         1 UNK         0.0806 
    113 H113       24.9569   33.0570    0.2162 H         1 UNK         0.0806 
    114 H114       26.2217   34.2097   -0.1790 H         1 UNK         0.0806 
    115 H115       28.5581   31.6533    1.0467 H         1 UNK         0.3010 
    116 H116       30.6283   33.7279    1.0220 H         1 UNK         0.0829 
    117 H117       30.5168   31.9044   -0.7171 H         1 UNK         0.0813 
    118 H118       32.0283   31.8461    0.1749 H         1 UNK         0.0813 
    119 H119       30.7549   30.6932    0.5413 H         1 UNK         0.0813 
    120 H120       32.7159   33.2899    2.1256 H         1 UNK         0.3038 
    121 H121       32.4523   32.6920    4.9543 H         1 UNK         0.0769 
    122 H122       34.9249   33.2059    3.2030 H         1 UNK         0.0811 
    123 H123       34.9139   33.1450    4.9590 H         1 UNK         0.0811 
    124 H124       34.0470   34.4260    4.1275 H         1 UNK         0.0811 
    125 H125       33.2908   30.9070    6.0612 H         1 UNK         0.3204 
    126 H126       33.2770   28.3877    4.6706 H         1 UNK         0.0748 
    127 H127       33.6634   27.4528    6.9528 H         1 UNK         0.0771 
    128 H128       33.9818   29.0647    7.5818 H         1 UNK         0.0771 
    129 H129       32.3771   28.6435    6.9800 H         1 UNK         0.0771 
    130 H130       34.9496   26.8492    4.5220 H         1 UNK         0.2980 
    131 H131       37.5791   27.9076    3.9626 H         1 UNK         0.0545 
    132 H132       36.3086   26.8206    6.9529 H         1 UNK         0.3459 
    133 H133       37.8426   26.3717    7.6542 H         1 UNK         0.3459 
    134 H134       38.0406   25.5473    3.1653 H         1 UNK         0.0616 
    135 H135       36.7508   26.3705    2.3533 H         1 UNK         0.0616 
    136 H136       34.7183   24.4809    1.6222 H         1 UNK         0.0634 
    137 H137       34.4045   25.9803    2.4607 H         1 UNK         0.0634 
@<TRIPOS>BOND
     1    1    2 1    
     2    1   72 1    
     3    1   73 1    
     4    1   74 1    
     5    2    3 2    
     6    2    4 am   BACKBONE|DICT|INTERRES
     7    4    5 1    
     8    4   75 1    
     9    5    6 1    
    10    5   35 1    
    11    5   76 1    
    12    6    7 1    
    13    6   77 1    
    14    6   78 1    
    15    7    8 1    
    16    8    9 1    
    17    8   79 1    
    18    8   80 1    
    19    9   10 ar   
    20    9   14 ar   
    21   10   11 ar   
    22   10   81 1    
    23   11   12 ar   
    24   11   71 1    
    25   12   13 ar   
    26   12   82 1    
    27   13   14 ar   
    28   13   15 1    
    29   14   83 1    
    30   15   16 1    
    31   15   84 1    
    32   15   85 1    
    33   16   17 1    
    34   17   18 1    
    35   17   86 1    
    36   17   87 1    
    37   18   19 1    
    38   18   37 1    
    39   18   88 1    
    40   19   20 am   BACKBONE|DICT|INTERRES
    41   19   89 1    
    42   20   21 2    
    43   20   22 1    
    44   22   23 1    
    45   22   24 1    
    46   22   90 1    
    47   23   91 1    
    48   23   92 1    
    49   23   93 1    
    50   24   25 am   BACKBONE|DICT|INTERRES
    51   24   94 1    
    52   25   26 2    
    53   25   27 1    
    54   27   28 1    
    55   27   29 1    
    56   27   95 1    
    57   28   96 1    
    58   28   97 1    
    59   28   98 1    
    60   29   30 am   BACKBONE|DICT|INTERRES
    61   29   99 1    
    62   30   31 2    
    63   30   32 1    
    64   32   33 1    
    65   32   34 1    
    66   32  100 1    
    67   33  101 1    
    68   33  102 1    
    69   33  103 1    
    70   34   35 am   BACKBONE|DICT|INTERRES
    71   34  104 1    
    72   35   36 2    
    73   37   38 2    
    74   37   39 am   BACKBONE|DICT|INTERRES
    75   39   40 1    
    76   39  105 1    
    77   40   41 1    
    78   40   42 1    
    79   40  106 1    
    80   41  107 1    
    81   41  108 1    
    82   41  109 1    
    83   42   43 2    
    84   42   44 am   BACKBONE|DICT|INTERRES
    85   44   45 1    
    86   44  110 1    
    87   45   46 1    
    88   45   47 1    
    89   45  111 1    
    90   46  112 1    
    91   46  113 1    
    92   46  114 1    
    93   47   48 2    
    94   47   49 am   BACKBONE|DICT|INTERRES
    95   49   50 1    
    96   49  115 1    
    97   50   51 1    
    98   50   52 1    
    99   50  116 1    
   100   51  117 1    
   101   51  118 1    
   102   51  119 1    
   103   52   53 2    
   104   52   54 am   BACKBONE|DICT|INTERRES
   105   54   55 1    
   106   54  120 1    
   107   55   56 1    
   108   55   57 1    
   109   55  121 1    
   110   56  122 1    
   111   56  123 1    
   112   56  124 1    
   113   57   58 2    
   114   57   59 am   BACKBONE|DICT|INTERRES
   115   59   60 1    
   116   59  125 1    
   117   60   61 1    
   118   60   62 1    
   119   60  126 1    
   120   61  127 1    
   121   61  128 1    
   122   61  129 1    
   123   62   63 2    
   124   62   64 am   BACKBONE|DICT|INTERRES
   125   64   65 1    
   126   64  130 1    
   127   65   66 1    
   128   65   69 1    
   129   65  131 1    
   130   66   67 am   BACKBONE|DICT|INTERRES
   131   66   68 2    
   132   67  132 1    
   133   67  133 1    
   134   69   70 1    
   135   69  134 1    
   136   69  135 1    
   137   70   71 1    
   138   71  136 1    
   139   71  137 1    
@<TRIPOS>SUBSTRUCTURE
     1 UNK         1 GROUP             0       ****    0 ROOT    
