@<TRIPOS>MOLECULE
3R136
137   139    1
SMALL
USER_CHARGES


@<TRIPOS>ATOM
      1 CA         26.9174   22.0868    1.5639 C.3       0 UNK        -0.1979 
      2 C          28.2316   22.7211    1.1363 C.2       0 UNK         0.4864 
      3 O          28.3416   23.9488    1.1438 O.2       0 UNK        -0.5359 
      4 N          29.2159   21.8902    0.7559 N.am      1 UNK        -0.4318 
      5 CA         30.5777   22.2759    0.3520 C.3       1 UNK         0.0824 
      6 C6         31.4180   22.8226    1.5375 C.3       12 UNK        -0.0944 
      7 S7         31.9925   21.5112    2.6690 S.3       12 UNK        -0.2672 
      8 C8         30.5930   21.2883    3.8208 C.3       12 UNK         0.0333 
      9 C9         30.1569   22.5330    4.5929 C.ar      12 UNK        -0.0807 
     10 C10        31.0582   23.5367    4.9709 C.ar      12 UNK        -0.0894 
     11 C11        30.6255   24.6455    5.7064 C.ar      12 UNK        -0.0804 
     12 C12        29.2817   24.7382    6.0829 C.ar      12 UNK        -0.0824 
     13 C13        28.3706   23.7486    5.7057 C.ar      12 UNK        -0.0762 
     14 C14        28.8154   22.6500    4.9671 C.ar      12 UNK        -0.0782 
     15 C15        26.9045   23.8543    6.0932 C.3       12 UNK         0.0230 
     16 S16        25.8961   24.4581    4.7040 S.3       12 UNK        -0.2608 
     17 C17        26.2797   26.2427    4.7092 C.3       12 UNK        -0.0989 
     18 CA         27.3296   26.6738    3.6430 C.3       5 UNK         0.0716 
     19 N          27.0076   26.2154    2.2836 N.am      5 UNK        -0.4135 
     20 C          25.9486   26.5784    1.5457 C.2       4 UNK         0.5031 
     21 O          25.1206   27.4262    1.8851 O.2       4 UNK        -0.5229 
     22 CA         25.8068   25.8501    0.1975 C.3       4 UNK         0.0329 
     23 CB         24.5117   26.2060   -0.5652 C.3       4 UNK        -0.2001 
     24 N          26.9977   26.0250   -0.6422 N.am      4 UNK        -0.4303 
     25 C          27.4382   27.1545   -1.2172 C.2       3 UNK         0.5044 
     26 O          26.8622   28.2391   -1.1349 O.2       3 UNK        -0.5152 
     27 CA         28.7537   27.0807   -2.0173 C.3       3 UNK         0.0319 
     28 CB         29.8474   27.9241   -1.3463 C.3       3 UNK        -0.2001 
     29 N          29.2611   25.7196   -2.2032 N.am      3 UNK        -0.4354 
     30 C          28.8268   24.8521   -3.1237 C.2       2 UNK         0.4964 
     31 O          27.9098   25.0948   -3.9085 O.2       2 UNK        -0.5047 
     32 CA         29.5224   23.4801   -3.1868 C.3       2 UNK         0.0288 
     33 CB         30.8184   23.5573   -4.0178 C.3       2 UNK        -0.2113 
     34 N          29.7563   22.8381   -1.8834 N.am      2 UNK        -0.4145 
     35 C          30.5693   23.2105   -0.8807 C.2       1 UNK         0.5006 
     36 O          31.2602   24.2329   -0.8994 O.2       1 UNK        -0.5103 
     37 C          27.6158   28.1933    3.7083 C.2       5 UNK         0.5055 
     38 O          27.2172   28.8544    4.6712 O.2       5 UNK        -0.5220 
     39 N          28.2861   28.7364    2.6814 N.am      6 UNK        -0.4450 
     40 CA         28.5983   30.1624    2.5414 C.3       6 UNK         0.0367 
     41 CB         28.9130   30.4691    1.0677 C.3       6 UNK        -0.1929 
     42 C          29.7392   30.6072    3.4748 C.2       6 UNK         0.5070 
     43 O          30.8302   30.9291    3.0020 O.2       6 UNK        -0.5237 
     44 N          29.4694   30.6221    4.7853 N.am      7 UNK        -0.4739 
     45 CA         30.4113   30.9742    5.8565 C.3       7 UNK         0.0276 
     46 CB         29.7494   30.6958    7.2152 C.3       7 UNK        -0.1927 
     47 C          30.9494   32.4158    5.7972 C.2       7 UNK         0.5013 
     48 O          32.0087   32.6877    6.3628 O.2       7 UNK        -0.5193 
     49 N          30.2282   33.3047    5.1015 N.am      8 UNK        -0.4253 
     50 CA         30.6602   34.6658    4.7763 C.3       8 UNK         0.0242 
     51 CB         29.4230   35.5005    4.4034 C.3       8 UNK        -0.2000 
     52 C          31.7091   34.7215    3.6456 C.2       8 UNK         0.4948 
     53 O          32.3069   35.7803    3.4458 O.2       8 UNK        -0.5275 
     54 N          31.9012   33.6121    2.9198 N.am      9 UNK        -0.4246 
     55 CA         32.8422   33.4597    1.8155 C.3       9 UNK         0.0261 
     56 CB         32.0466   33.3299    0.4987 C.3       9 UNK        -0.1959 
     57 C          33.7680   32.2674    2.1173 C.2       9 UNK         0.5033 
     58 O          34.2926   32.1751    3.2290 O.2       9 UNK        -0.5390 
     59 N          33.9799   31.3900    1.1277 N.am      10 UNK        -0.4215 
     60 CA         34.8835   30.2385    1.2035 C.3       10 UNK         0.0240 
     61 CB         35.2273   29.7870   -0.2265 C.3       10 UNK        -0.1982 
     62 C          34.3415   29.0489    2.0188 C.2       10 UNK         0.4970 
     63 O          35.1360   28.1833    2.3884 O.2       10 UNK        -0.4916 
     64 N          33.0240   29.0055    2.2638 N.am      11 UNK        -0.4279 
     65 CA         32.3133   27.9036    2.9326 C.3       11 UNK         0.1003 
     66 C          32.4319   26.5397    2.1897 C.2       11 UNK         0.5709 
     67 N          32.2754   26.5296    0.8701 N.am      11 UNK        -0.7358 
     68 O          32.6710   25.4990    2.7936 O.2       11 UNK        -0.4999 
     69 C69        32.6186   27.8400    4.4576 C.3       12 UNK        -0.0954 
     70 S70        31.1509   27.3575    5.4321 S.3       12 UNK        -0.2268 
     71 C71        31.6118   25.7314    6.1155 C.3       12 UNK         0.0203 
     72 H72        26.9972   21.0037    1.6540 H         1 UNK         0.0888 
     73 H73        26.6090   22.4829    2.5304 H         1 UNK         0.0888 
     74 H74        26.1368   22.3123    0.8382 H         1 UNK         0.0888 
     75 H75        29.0405   20.8949    0.7604 H         1 UNK         0.3017 
     76 H76        31.0631   21.3642   -0.0003 H         1 UNK         0.0873 
     77 H77        32.3291   23.3036    1.1785 H         1 UNK         0.0745 
     78 H78        30.8746   23.5927    2.0864 H         1 UNK         0.0745 
     79 H79        30.8726   20.5233    4.5460 H         1 UNK         0.0705 
     80 H80        29.7522   20.8777    3.2616 H         1 UNK         0.0705 
     81 H81        32.0994   23.4601    4.6899 H         1 UNK         0.1334 
     82 H82        28.9452   25.5909    6.6568 H         1 UNK         0.1417 
     83 H83        28.1086   21.8814    4.6847 H         1 UNK         0.1562 
     84 H84        26.7728   24.5006    6.9623 H         1 UNK         0.0748 
     85 H85        26.5368   22.8710    6.3908 H         1 UNK         0.0748 
     86 H86        26.6142   26.5268    5.7086 H         1 UNK         0.0940 
     87 H87        25.3422   26.7791    4.5515 H         1 UNK         0.0940 
     88 H88        28.2738   26.1896    3.8941 H         1 UNK         0.0703 
     89 H89        27.6058   25.4770    1.9140 H         1 UNK         0.3081 
     90 H90        25.7532   24.7864    0.4316 H         1 UNK         0.0719 
     91 H91        24.4403   25.6558   -1.5033 H         1 UNK         0.0809 
     92 H92        24.4479   27.2700   -0.7939 H         1 UNK         0.0809 
     93 H93        23.6325   25.9523    0.0281 H         1 UNK         0.0809 
     94 H94        27.5941   25.2110   -0.7140 H         1 UNK         0.2990 
     95 H95        28.5572   27.5090   -3.0025 H         1 UNK         0.0690 
     96 H96        30.8041   27.8216   -1.8590 H         1 UNK         0.0788 
     97 H97        29.9864   27.6404   -0.3033 H         1 UNK         0.0788 
     98 H98        29.5827   28.9811   -1.3739 H         1 UNK         0.0788 
     99 H99        30.0284   25.4177   -1.6061 H         1 UNK         0.2993 
    100 H100       28.8380   22.8165   -3.7182 H         1 UNK         0.0949 
    101 H101       31.5587   24.2158   -3.5624 H         1 UNK         0.0767 
    102 H102       31.2726   22.5735   -4.1357 H         1 UNK         0.0767 
    103 H103       30.6160   23.9427   -5.0181 H         1 UNK         0.0767 
    104 H104       29.2092   22.0028   -1.7273 H         1 UNK         0.3013 
    105 H105       28.5739   28.1316    1.9274 H         1 UNK         0.3121 
    106 H106       27.7101   30.7373    2.8128 H         1 UNK         0.0774 
    107 H107       29.0606   31.5394    0.9181 H         1 UNK         0.0815 
    108 H108       29.8237   29.9690    0.7394 H         1 UNK         0.0815 
    109 H109       28.0977   30.1626    0.4124 H         1 UNK         0.0815 
    110 H110       28.5633   30.2605    5.0699 H         1 UNK         0.2987 
    111 H111       31.2779   30.3193    5.7579 H         1 UNK         0.0949 
    112 H112       29.4640   29.6475    7.3075 H         1 UNK         0.0806 
    113 H113       30.4323   30.9172    8.0366 H         1 UNK         0.0806 
    114 H114       28.8549   31.3028    7.3599 H         1 UNK         0.0806 
    115 H115       29.3626   32.9882    4.6894 H         1 UNK         0.3010 
    116 H116       31.1166   35.1069    5.6651 H         1 UNK         0.0829 
    117 H117       28.6976   35.5218    5.2170 H         1 UNK         0.0813 
    118 H118       29.6987   36.5346    4.1918 H         1 UNK         0.0813 
    119 H119       28.9236   35.1091    3.5161 H         1 UNK         0.0813 
    120 H120       31.4203   32.7561    3.1835 H         1 UNK         0.3038 
    121 H121       33.4865   34.3378    1.7411 H         1 UNK         0.0769 
    122 H122       31.3853   34.1853    0.3597 H         1 UNK         0.0811 
    123 H123       31.4260   32.4329    0.4843 H         1 UNK         0.0811 
    124 H124       32.7071   33.3020   -0.3688 H         1 UNK         0.0811 
    125 H125       33.5085   31.5404    0.2473 H         1 UNK         0.3204 
    126 H126       35.8078   30.5629    1.6868 H         1 UNK         0.0748 
    127 H127       35.9308   28.9530   -0.2156 H         1 UNK         0.0771 
    128 H128       34.3413   29.4570   -0.7708 H         1 UNK         0.0771 
    129 H129       35.6932   30.5912   -0.7965 H         1 UNK         0.0771 
    130 H130       32.4481   29.7939    1.9987 H         1 UNK         0.2980 
    131 H131       31.2622   28.1688    2.8254 H         1 UNK         0.0545 
    132 H132       32.2956   25.6491    0.3730 H         1 UNK         0.3459 
    133 H133       32.1342   27.3867    0.3636 H         1 UNK         0.3459 
    134 H134       33.4740   27.1978    4.6708 H         1 UNK         0.0616 
    135 H135       32.9080   28.8280    4.8178 H         1 UNK         0.0616 
    136 H136       31.6298   25.8029    7.2037 H         1 UNK         0.0634 
    137 H137       32.6238   25.4622    5.8117 H         1 UNK         0.0634 
@<TRIPOS>BOND
     1    1    2 1    
     2    1   72 1    
     3    1   73 1    
     4    1   74 1    
     5    2    3 2    
     6    2    4 am   BACKBONE|DICT|INTERRES
     7    4    5 1    
     8    4   75 1    
     9    5    6 1    
    10    5   35 1    
    11    5   76 1    
    12    6    7 1    
    13    6   77 1    
    14    6   78 1    
    15    7    8 1    
    16    8    9 1    
    17    8   79 1    
    18    8   80 1    
    19    9   10 ar   
    20    9   14 ar   
    21   10   11 ar   
    22   10   81 1    
    23   11   12 ar   
    24   11   71 1    
    25   12   13 ar   
    26   12   82 1    
    27   13   14 ar   
    28   13   15 1    
    29   14   83 1    
    30   15   16 1    
    31   15   84 1    
    32   15   85 1    
    33   16   17 1    
    34   17   18 1    
    35   17   86 1    
    36   17   87 1    
    37   18   19 1    
    38   18   37 1    
    39   18   88 1    
    40   19   20 am   BACKBONE|DICT|INTERRES
    41   19   89 1    
    42   20   21 2    
    43   20   22 1    
    44   22   23 1    
    45   22   24 1    
    46   22   90 1    
    47   23   91 1    
    48   23   92 1    
    49   23   93 1    
    50   24   25 am   BACKBONE|DICT|INTERRES
    51   24   94 1    
    52   25   26 2    
    53   25   27 1    
    54   27   28 1    
    55   27   29 1    
    56   27   95 1    
    57   28   96 1    
    58   28   97 1    
    59   28   98 1    
    60   29   30 am   BACKBONE|DICT|INTERRES
    61   29   99 1    
    62   30   31 2    
    63   30   32 1    
    64   32   33 1    
    65   32   34 1    
    66   32  100 1    
    67   33  101 1    
    68   33  102 1    
    69   33  103 1    
    70   34   35 am   BACKBONE|DICT|INTERRES
    71   34  104 1    
    72   35   36 2    
    73   37   38 2    
    74   37   39 am   BACKBONE|DICT|INTERRES
    75   39   40 1    
    76   39  105 1    
    77   40   41 1    
    78   40   42 1    
    79   40  106 1    
    80   41  107 1    
    81   41  108 1    
    82   41  109 1    
    83   42   43 2    
    84   42   44 am   BACKBONE|DICT|INTERRES
    85   44   45 1    
    86   44  110 1    
    87   45   46 1    
    88   45   47 1    
    89   45  111 1    
    90   46  112 1    
    91   46  113 1    
    92   46  114 1    
    93   47   48 2    
    94   47   49 am   BACKBONE|DICT|INTERRES
    95   49   50 1    
    96   49  115 1    
    97   50   51 1    
    98   50   52 1    
    99   50  116 1    
   100   51  117 1    
   101   51  118 1    
   102   51  119 1    
   103   52   53 2    
   104   52   54 am   BACKBONE|DICT|INTERRES
   105   54   55 1    
   106   54  120 1    
   107   55   56 1    
   108   55   57 1    
   109   55  121 1    
   110   56  122 1    
   111   56  123 1    
   112   56  124 1    
   113   57   58 2    
   114   57   59 am   BACKBONE|DICT|INTERRES
   115   59   60 1    
   116   59  125 1    
   117   60   61 1    
   118   60   62 1    
   119   60  126 1    
   120   61  127 1    
   121   61  128 1    
   122   61  129 1    
   123   62   63 2    
   124   62   64 am   BACKBONE|DICT|INTERRES
   125   64   65 1    
   126   64  130 1    
   127   65   66 1    
   128   65   69 1    
   129   65  131 1    
   130   66   67 am   BACKBONE|DICT|INTERRES
   131   66   68 2    
   132   67  132 1    
   133   67  133 1    
   134   69   70 1    
   135   69  134 1    
   136   69  135 1    
   137   70   71 1    
   138   71  136 1    
   139   71  137 1    
@<TRIPOS>SUBSTRUCTURE
     1 UNK         1 GROUP             0       ****    0 ROOT    
