@<TRIPOS>MOLECULE
3R136
137   139    1
SMALL
USER_CHARGES


@<TRIPOS>ATOM
      1 CA         29.5566   18.6365   -0.6282 C.3       0 UNK        -0.1979 
      2 C          28.8502   19.9647   -0.4019 C.2       0 UNK         0.4864 
      3 O          28.7202   20.7577   -1.3368 O.2       0 UNK        -0.5359 
      4 N          28.3851   20.2151    0.8292 N.am      1 UNK        -0.4318 
      5 CA         27.6862   21.4365    1.2449 C.3       1 UNK         0.0824 
      6 C6         27.7808   21.6614    2.7770 C.3       12 UNK        -0.0944 
      7 S7         29.4660   22.1418    3.2751 S.3       12 UNK        -0.2672 
      8 C8         29.2709   23.9503    3.2744 C.3       12 UNK         0.0333 
      9 C9         30.6129   24.6578    3.3457 C.ar      12 UNK        -0.0807 
     10 C10        31.1458   25.0429    4.5796 C.ar      12 UNK        -0.0894 
     11 C11        32.3813   25.6944    4.6449 C.ar      12 UNK        -0.0804 
     12 C12        33.0680   25.9823    3.4607 C.ar      12 UNK        -0.0824 
     13 C13        32.5563   25.5831    2.2239 C.ar      12 UNK        -0.0762 
     14 C14        31.3252   24.9221    2.1723 C.ar      12 UNK        -0.0782 
     15 C15        33.3700   25.8118    0.9570 C.3       12 UNK         0.0230 
     16 S16        32.4583   26.7324   -0.3191 S.3       12 UNK        -0.2608 
     17 C17        32.3140   28.3842    0.4357 C.3       12 UNK        -0.0989 
     18 CA         30.8721   28.9229    0.3019 C.3       5 UNK         0.0716 
     19 N          29.9034   28.1613    1.0990 N.am      5 UNK        -0.4135 
     20 C          28.5764   28.3399    1.0435 C.2       4 UNK         0.5031 
     21 O          28.0247   29.1769    0.3234 O.2       4 UNK        -0.5229 
     22 CA         27.7137   27.4643    1.9642 C.3       4 UNK         0.0329 
     23 CB         27.2223   28.2704    3.1770 C.3       4 UNK        -0.2001 
     24 N          26.5550   26.9497    1.2337 N.am      4 UNK        -0.4303 
     25 C          26.6089   25.9352    0.3642 C.2       3 UNK         0.5044 
     26 O          27.6244   25.2656    0.1492 O.2       3 UNK        -0.5152 
     27 CA         25.3156   25.6119   -0.3955 C.3       3 UNK         0.0319 
     28 CB         25.1321   26.5389   -1.6097 C.3       3 UNK        -0.2001 
     29 N          25.4121   24.2273   -0.8357 N.am      3 UNK        -0.4354 
     30 C          24.4062   23.3659   -1.0242 C.2       2 UNK         0.4964 
     31 O          23.2154   23.6765   -0.9876 O.2       2 UNK        -0.5047 
     32 CA         24.8064   21.8957   -1.2601 C.3       2 UNK         0.0288 
     33 CB         24.9272   21.5991   -2.7634 C.3       2 UNK        -0.2113 
     34 N          26.0706   21.5608   -0.5949 N.am      2 UNK        -0.4145 
     35 C          26.2298   21.4660    0.7324 C.2       1 UNK         0.5006 
     36 O          25.2880   21.4340    1.5275 O.2       1 UNK        -0.5103 
     37 C          30.8092   30.4211    0.6448 C.2       5 UNK         0.5055 
     38 O          30.8134   30.7742    1.8289 O.2       5 UNK        -0.5220 
     39 N          30.7034   31.2539   -0.4012 N.am      6 UNK        -0.4450 
     40 CA         30.5061   32.7108   -0.3745 C.3       6 UNK         0.0367 
     41 CB         31.7226   33.4100    0.2694 C.3       6 UNK        -0.1929 
     42 C          29.1806   33.1585    0.2802 C.2       6 UNK         0.5070 
     43 O          29.0426   34.3390    0.6006 O.2       6 UNK        -0.5237 
     44 N          28.2508   32.2142    0.5090 N.am      7 UNK        -0.4739 
     45 CA         27.0134   32.3378    1.2950 C.3       7 UNK         0.0276 
     46 CB         26.0317   33.3293    0.6357 C.3       7 UNK        -0.1927 
     47 C          27.2505   32.6525    2.7895 C.2       7 UNK         0.5013 
     48 O          26.2978   32.9951    3.4914 O.2       7 UNK        -0.5193 
     49 N          28.5031   32.5285    3.2490 N.am      8 UNK        -0.4253 
     50 CA         28.9595   32.8831    4.5946 C.3       8 UNK         0.0242 
     51 CB         29.9204   34.0801    4.4771 C.3       8 UNK        -0.2000 
     52 C          29.6492   31.7122    5.3130 C.2       8 UNK         0.4948 
     53 O          30.0069   31.8697    6.4807 O.2       8 UNK        -0.5275 
     54 N          29.8378   30.5830    4.6112 N.am      9 UNK        -0.4246 
     55 CA         30.6139   29.4033    5.0068 C.3       9 UNK         0.0261 
     56 CB         30.0387   28.7276    6.2705 C.3       9 UNK        -0.1959 
     57 C          32.1052   29.7570    5.1189 C.2       9 UNK         0.5033 
     58 O          32.6961   29.6696    6.1979 O.2       9 UNK        -0.5390 
     59 N          32.6816   30.1751    3.9848 N.am      10 UNK        -0.4215 
     60 CA         34.0908   30.5381    3.8195 C.3       10 UNK         0.0240 
     61 CB         34.2469   31.3208    2.5024 C.3       10 UNK        -0.1982 
     62 C          35.0469   29.3276    3.9074 C.2       10 UNK         0.4970 
     63 O          35.6865   28.9713    2.9167 O.2       10 UNK        -0.4916 
     64 N          35.1294   28.7223    5.0979 N.am      11 UNK        -0.4279 
     65 CA         36.1096   27.6858    5.4670 C.3       11 UNK         0.1003 
     66 C          37.5496   28.2354    5.6988 C.2       11 UNK         0.5709 
     67 N          37.7590   29.5417    5.8201 N.am      11 UNK        -0.7358 
     68 O          38.4991   27.4578    5.7593 O.2       11 UNK        -0.4999 
     69 C69        35.6163   26.8520    6.6872 C.3       12 UNK        -0.0954 
     70 S70        34.6534   25.3816    6.2021 S.3       12 UNK        -0.2268 
     71 C71        32.9817   26.0717    5.9926 C.3       12 UNK         0.0203 
     72 H72        30.5759   18.8086   -0.9727 H         1 UNK         0.0888 
     73 H73        29.6027   18.0388    0.2820 H         1 UNK         0.0888 
     74 H74        29.0325   18.0578   -1.3883 H         1 UNK         0.0888 
     75 H75        28.5105   19.5218    1.5531 H         1 UNK         0.3017 
     76 H76        28.1795   22.2856    0.7649 H         1 UNK         0.0873 
     77 H77        27.4911   20.7603    3.3205 H         1 UNK         0.0745 
     78 H78        27.0938   22.4433    3.1082 H         1 UNK         0.0745 
     79 H79        28.7480   24.2534    2.3670 H         1 UNK         0.0705 
     80 H80        28.6366   24.2490    4.1106 H         1 UNK         0.0705 
     81 H81        30.6039   24.8208    5.4889 H         1 UNK         0.1334 
     82 H82        34.0260   26.4805    3.5085 H         1 UNK         0.1417 
     83 H83        30.9267   24.6026    1.2181 H         1 UNK         0.1562 
     84 H84        33.6581   24.8421    0.5489 H         1 UNK         0.0748 
     85 H85        34.2998   26.3401    1.1757 H         1 UNK         0.0748 
     86 H86        33.0241   29.0358   -0.0781 H         1 UNK         0.0940 
     87 H87        32.6265   28.3587    1.4813 H         1 UNK         0.0940 
     88 H88        30.5702   28.8102   -0.7423 H         1 UNK         0.0703 
     89 H89        30.2860   27.4471    1.7003 H         1 UNK         0.3081 
     90 H90        28.3093   26.6247    2.3264 H         1 UNK         0.0719 
     91 H91        26.6497   29.1494    2.8777 H         1 UNK         0.0809 
     92 H92        26.5904   27.6641    3.8264 H         1 UNK         0.0809 
     93 H93        28.0591   28.6159    3.7808 H         1 UNK         0.0809 
     94 H94        25.6975   27.4760    1.3188 H         1 UNK         0.2990 
     95 H95        24.4703   25.7191    0.2877 H         1 UNK         0.0690 
     96 H96        25.0686   27.5831   -1.3008 H         1 UNK         0.0788 
     97 H97        24.2158   26.3049   -2.1521 H         1 UNK         0.0788 
     98 H98        25.9655   26.4549   -2.3086 H         1 UNK         0.0788 
     99 H99        26.3646   23.8838   -0.8556 H         1 UNK         0.2993 
    100 H100       24.0177   21.2651   -0.8436 H         1 UNK         0.0949 
    101 H101       25.7102   22.1968   -3.2322 H         1 UNK         0.0767 
    102 H102       25.1549   20.5480   -2.9424 H         1 UNK         0.0767 
    103 H103       23.9925   21.8208   -3.2807 H         1 UNK         0.0767 
    104 H104       26.9053   21.4929   -1.1717 H         1 UNK         0.3013 
    105 H105       30.6913   30.8448   -1.3262 H         1 UNK         0.3121 
    106 H106       30.4514   33.0305   -1.4162 H         1 UNK         0.0774 
    107 H107       31.6765   34.4896    0.1212 H         1 UNK         0.0815 
    108 H108       31.7658   33.2356    1.3445 H         1 UNK         0.0815 
    109 H109       32.6599   33.0647   -0.1665 H         1 UNK         0.0815 
    110 H110       28.4517   31.2677    0.2021 H         1 UNK         0.2987 
    111 H111       26.5462   31.3520    1.2721 H         1 UNK         0.0949 
    112 H112       26.3900   34.3573    0.6948 H         1 UNK         0.0806 
    113 H113       25.8709   33.0889   -0.4152 H         1 UNK         0.0806 
    114 H114       25.0575   33.2992    1.1253 H         1 UNK         0.0806 
    115 H115       29.2189   32.2485    2.5897 H         1 UNK         0.3010 
    116 H116       28.1135   33.1786    5.2186 H         1 UNK         0.0829 
    117 H117       29.4342   34.9320    4.0010 H         1 UNK         0.0813 
    118 H118       30.2614   34.4101    5.4594 H         1 UNK         0.0813 
    119 H119       30.8052   33.8298    3.8901 H         1 UNK         0.0813 
    120 H120       29.5616   30.6008    3.6389 H         1 UNK         0.3038 
    121 H121       30.5283   28.6847    4.1901 H         1 UNK         0.0769 
    122 H122       30.1550   29.3487    7.1589 H         1 UNK         0.0811 
    123 H123       30.5482   27.7850    6.4704 H         1 UNK         0.0811 
    124 H124       28.9785   28.5040    6.1550 H         1 UNK         0.0811 
    125 H125       32.0882   30.2925    3.1676 H         1 UNK         0.3204 
    126 H126       34.3601   31.2146    4.6335 H         1 UNK         0.0748 
    127 H127       35.2817   31.6307    2.3503 H         1 UNK         0.0771 
    128 H128       33.9539   30.7249    1.6378 H         1 UNK         0.0771 
    129 H129       33.6391   32.2252    2.5077 H         1 UNK         0.0771 
    130 H130       34.5057   29.0466    5.8313 H         1 UNK         0.2980 
    131 H131       36.2100   27.0131    4.6132 H         1 UNK         0.0545 
    132 H132       38.6982   29.8778    5.9646 H         1 UNK         0.3459 
    133 H133       36.9911   30.1914    5.7827 H         1 UNK         0.3459 
    134 H134       36.4542   26.4670    7.2719 H         1 UNK         0.0616 
    135 H135       35.0394   27.4640    7.3828 H         1 UNK         0.0616 
    136 H136       33.0109   27.1538    6.0747 H         1 UNK         0.0634 
    137 H137       32.3562   25.7185    6.8136 H         1 UNK         0.0634 
@<TRIPOS>BOND
     1    1    2 1    
     2    1   72 1    
     3    1   73 1    
     4    1   74 1    
     5    2    3 2    
     6    2    4 am   BACKBONE|DICT|INTERRES
     7    4    5 1    
     8    4   75 1    
     9    5    6 1    
    10    5   35 1    
    11    5   76 1    
    12    6    7 1    
    13    6   77 1    
    14    6   78 1    
    15    7    8 1    
    16    8    9 1    
    17    8   79 1    
    18    8   80 1    
    19    9   10 ar   
    20    9   14 ar   
    21   10   11 ar   
    22   10   81 1    
    23   11   12 ar   
    24   11   71 1    
    25   12   13 ar   
    26   12   82 1    
    27   13   14 ar   
    28   13   15 1    
    29   14   83 1    
    30   15   16 1    
    31   15   84 1    
    32   15   85 1    
    33   16   17 1    
    34   17   18 1    
    35   17   86 1    
    36   17   87 1    
    37   18   19 1    
    38   18   37 1    
    39   18   88 1    
    40   19   20 am   BACKBONE|DICT|INTERRES
    41   19   89 1    
    42   20   21 2    
    43   20   22 1    
    44   22   23 1    
    45   22   24 1    
    46   22   90 1    
    47   23   91 1    
    48   23   92 1    
    49   23   93 1    
    50   24   25 am   BACKBONE|DICT|INTERRES
    51   24   94 1    
    52   25   26 2    
    53   25   27 1    
    54   27   28 1    
    55   27   29 1    
    56   27   95 1    
    57   28   96 1    
    58   28   97 1    
    59   28   98 1    
    60   29   30 am   BACKBONE|DICT|INTERRES
    61   29   99 1    
    62   30   31 2    
    63   30   32 1    
    64   32   33 1    
    65   32   34 1    
    66   32  100 1    
    67   33  101 1    
    68   33  102 1    
    69   33  103 1    
    70   34   35 am   BACKBONE|DICT|INTERRES
    71   34  104 1    
    72   35   36 2    
    73   37   38 2    
    74   37   39 am   BACKBONE|DICT|INTERRES
    75   39   40 1    
    76   39  105 1    
    77   40   41 1    
    78   40   42 1    
    79   40  106 1    
    80   41  107 1    
    81   41  108 1    
    82   41  109 1    
    83   42   43 2    
    84   42   44 am   BACKBONE|DICT|INTERRES
    85   44   45 1    
    86   44  110 1    
    87   45   46 1    
    88   45   47 1    
    89   45  111 1    
    90   46  112 1    
    91   46  113 1    
    92   46  114 1    
    93   47   48 2    
    94   47   49 am   BACKBONE|DICT|INTERRES
    95   49   50 1    
    96   49  115 1    
    97   50   51 1    
    98   50   52 1    
    99   50  116 1    
   100   51  117 1    
   101   51  118 1    
   102   51  119 1    
   103   52   53 2    
   104   52   54 am   BACKBONE|DICT|INTERRES
   105   54   55 1    
   106   54  120 1    
   107   55   56 1    
   108   55   57 1    
   109   55  121 1    
   110   56  122 1    
   111   56  123 1    
   112   56  124 1    
   113   57   58 2    
   114   57   59 am   BACKBONE|DICT|INTERRES
   115   59   60 1    
   116   59  125 1    
   117   60   61 1    
   118   60   62 1    
   119   60  126 1    
   120   61  127 1    
   121   61  128 1    
   122   61  129 1    
   123   62   63 2    
   124   62   64 am   BACKBONE|DICT|INTERRES
   125   64   65 1    
   126   64  130 1    
   127   65   66 1    
   128   65   69 1    
   129   65  131 1    
   130   66   67 am   BACKBONE|DICT|INTERRES
   131   66   68 2    
   132   67  132 1    
   133   67  133 1    
   134   69   70 1    
   135   69  134 1    
   136   69  135 1    
   137   70   71 1    
   138   71  136 1    
   139   71  137 1    
@<TRIPOS>SUBSTRUCTURE
     1 UNK         1 GROUP             0       ****    0 ROOT    
