@<TRIPOS>MOLECULE
3R136
137   139    1
SMALL
USER_CHARGES


@<TRIPOS>ATOM
      1 CA         32.7993   20.2766   -3.8674 C.3       0 UNK        -0.1979 
      2 C          32.4751   21.2638   -2.7556 C.2       0 UNK         0.4864 
      3 O          33.2549   22.1858   -2.5103 O.2       0 UNK        -0.5359 
      4 N          31.3362   21.0733   -2.0766 N.am      1 UNK        -0.4318 
      5 CA         30.8308   21.9610   -1.0261 C.3       1 UNK         0.0824 
      6 C6         29.7774   21.2270   -0.1525 C.3       12 UNK        -0.0944 
      7 S7         28.9992   22.2472    1.1450 S.3       12 UNK        -0.2672 
      8 C8         30.2839   22.2810    2.4320 C.3       12 UNK         0.0333 
      9 C9         30.0407   23.4513    3.3711 C.ar      12 UNK        -0.0807 
     10 C10        30.7994   24.6222    3.2646 C.ar      12 UNK        -0.0894 
     11 C11        30.5368   25.7253    4.0849 C.ar      12 UNK        -0.0804 
     12 C12        29.5066   25.6334    5.0315 C.ar      12 UNK        -0.0824 
     13 C13        28.7282   24.4772    5.1300 C.ar      12 UNK        -0.0762 
     14 C14        29.0120   23.3823    4.3124 C.ar      12 UNK        -0.0782 
     15 C15        27.5342   24.4319    6.0691 C.3       12 UNK         0.0230 
     16 S16        25.9882   24.7787    5.1669 S.3       12 UNK        -0.2608 
     17 C17        26.1834   26.5473    4.7527 C.3       12 UNK        -0.0989 
     18 CA         26.6672   26.7992    3.2931 C.3       5 UNK         0.0716 
     19 N          25.7724   26.2327    2.2778 N.am      5 UNK        -0.4135 
     20 C          24.5127   26.6016    2.0091 C.2       4 UNK         0.5031 
     21 O          23.9208   27.5137    2.5894 O.2       4 UNK        -0.5229 
     22 CA         23.8000   25.8199    0.8864 C.3       4 UNK         0.0329 
     23 CB         22.3639   26.3167    0.6315 C.3       4 UNK        -0.2001 
     24 N          24.5514   25.8852   -0.3686 N.am      4 UNK        -0.4303 
     25 C          25.6048   25.1201   -0.6809 C.2       3 UNK         0.5044 
     26 O          26.0198   24.2188    0.0501 O.2       3 UNK        -0.5152 
     27 CA         26.3226   25.4127   -2.0159 C.3       3 UNK         0.0319 
     28 CB         25.9419   26.7729   -2.6459 C.3       3 UNK        -0.2001 
     29 N          27.7829   25.3092   -1.9103 N.am      3 UNK        -0.4354 
     30 C          28.5868   25.9626   -1.0592 C.2       2 UNK         0.4964 
     31 O          28.1862   26.7099   -0.1633 O.2       2 UNK        -0.5047 
     32 CA         30.0983   25.7420   -1.2611 C.3       2 UNK         0.0288 
     33 CB         30.9496   26.7333   -0.4495 C.3       2 UNK        -0.2113 
     34 N          30.5079   24.3857   -0.9036 N.am      2 UNK        -0.4145 
     35 C          30.3121   23.2830   -1.6383 C.2       1 UNK         0.5006 
     36 O          29.7420   23.2809   -2.7343 O.2       1 UNK        -0.5103 
     37 C          26.9578   28.2940    3.0275 C.2       5 UNK         0.5055 
     38 O          26.6558   29.1377    3.8755 O.2       5 UNK        -0.5220 
     39 N          27.5109   28.6082    1.8461 N.am      6 UNK        -0.4450 
     40 CA         27.8898   29.9664    1.4482 C.3       6 UNK         0.0367 
     41 CB         28.2029   29.9962   -0.0572 C.3       6 UNK        -0.1929 
     42 C          29.0799   30.4763    2.2804 C.2       6 UNK         0.5070 
     43 O          30.2168   30.0721    2.0304 O.2       6 UNK        -0.5237 
     44 N          28.7870   31.3585    3.2477 N.am      7 UNK        -0.4739 
     45 CA         29.7018   31.8794    4.2747 C.3       7 UNK         0.0276 
     46 CB         28.9392   32.8713    5.1672 C.3       7 UNK        -0.1927 
     47 C          31.0004   32.5219    3.7566 C.2       7 UNK         0.5013 
     48 O          31.9929   32.5435    4.4867 O.2       7 UNK        -0.5193 
     49 N          30.9790   33.0117    2.5090 N.am      8 UNK        -0.4253 
     50 CA         32.1348   33.5515    1.7909 C.3       8 UNK         0.0242 
     51 CB         31.6764   34.0959    0.4286 C.3       8 UNK        -0.2000 
     52 C          33.2776   32.5362    1.6070 C.2       8 UNK         0.4948 
     53 O          34.4389   32.9453    1.5682 O.2       8 UNK        -0.5275 
     54 N          32.9564   31.2351    1.5453 N.am      9 UNK        -0.4246 
     55 CA         33.9247   30.1391    1.4653 C.3       9 UNK         0.0261 
     56 CB         33.2622   28.9380    0.7708 C.3       9 UNK        -0.1959 
     57 C          34.4991   29.7850    2.8518 C.2       9 UNK         0.5033 
     58 O          34.4265   28.6303    3.2739 O.2       9 UNK        -0.5390 
     59 N          35.0439   30.7957    3.5433 N.am      10 UNK        -0.4215 
     60 CA         35.7289   30.7831    4.8462 C.3       10 UNK         0.0240 
     61 CB         37.0089   29.9266    4.7791 C.3       10 UNK        -0.1982 
     62 C          34.8801   30.3922    6.0746 C.2       10 UNK         0.4970 
     63 O          35.2300   30.8066    7.1807 O.2       10 UNK        -0.4916 
     64 N          33.8128   29.6087    5.8890 N.am      11 UNK        -0.4279 
     65 CA         32.9191   29.1128    6.9476 C.3       11 UNK         0.1003 
     66 C          32.0861   30.1916    7.7021 C.2       11 UNK         0.5709 
     67 N          31.9214   31.4025    7.1844 N.am      11 UNK        -0.7358 
     68 O          31.5928   29.9249    8.7957 O.2       11 UNK        -0.4999 
     69 C69        32.0352   27.9384    6.4482 C.3       12 UNK        -0.0954 
     70 S70        31.0108   28.3817    5.0049 S.3       12 UNK        -0.2268 
     71 C71        31.3453   27.0052    3.8551 C.3       12 UNK         0.0203 
     72 H72        32.0337   19.5071   -3.9658 H         1 UNK         0.0888 
     73 H73        32.8793   20.7987   -4.8205 H         1 UNK         0.0888 
     74 H74        33.7505   19.7843   -3.6669 H         1 UNK         0.0888 
     75 H75        30.7218   20.3182   -2.3458 H         1 UNK         0.3017 
     76 H76        31.6786   22.2077   -0.3834 H         1 UNK         0.0873 
     77 H77        30.2280   20.3524    0.3199 H         1 UNK         0.0745 
     78 H78        28.9736   20.8446   -0.7844 H         1 UNK         0.0745 
     79 H79        30.2696   21.3418    2.9872 H         1 UNK         0.0705 
     80 H80        31.2721   22.3594    1.9777 H         1 UNK         0.0705 
     81 H81        31.5819   24.6878    2.5212 H         1 UNK         0.1334 
     82 H82        29.2635   26.4738    5.6644 H         1 UNK         0.1417 
     83 H83        28.3994   22.4927    4.3733 H         1 UNK         0.1562 
     84 H84        27.6534   25.1413    6.8896 H         1 UNK         0.0748 
     85 H85        27.4643   23.4441    6.5270 H         1 UNK         0.0748 
     86 H86        26.8715   27.0008    5.4680 H         1 UNK         0.0940 
     87 H87        25.2237   27.0381    4.9240 H         1 UNK         0.0940 
     88 H88        27.6184   26.2849    3.1576 H         1 UNK         0.0703 
     89 H89        26.1642   25.4859    1.7137 H         1 UNK         0.3081 
     90 H90        23.7353   24.7790    1.2112 H         1 UNK         0.0719 
     91 H91        21.7594   26.2447    1.5368 H         1 UNK         0.0809 
     92 H92        22.3468   27.3587    0.3095 H         1 UNK         0.0809 
     93 H93        21.8677   25.7201   -0.1342 H         1 UNK         0.0809 
     94 H94        24.2960   26.6255   -1.0061 H         1 UNK         0.2990 
     95 H95        26.0109   24.6264   -2.7046 H         1 UNK         0.0690 
     96 H96        26.4898   26.9404   -3.5734 H         1 UNK         0.0788 
     97 H97        26.1652   27.6073   -1.9792 H         1 UNK         0.0788 
     98 H98        24.8818   26.8167   -2.8984 H         1 UNK         0.0788 
     99 H99        28.2260   24.6415   -2.5334 H         1 UNK         0.2993 
    100 H100       30.3156   25.9055   -2.3191 H         1 UNK         0.0949 
    101 H101       32.0142   26.5780   -0.6249 H         1 UNK         0.0767 
    102 H102       30.7245   27.7621   -0.7304 H         1 UNK         0.0767 
    103 H103       30.7671   26.6395    0.6212 H         1 UNK         0.0767 
    104 H104       30.9276   24.2819    0.0076 H         1 UNK         0.3013 
    105 H105       27.7456   27.8648    1.1883 H         1 UNK         0.3121 
    106 H106       27.0322   30.6207    1.6188 H         1 UNK         0.0774 
    107 H107       29.0471   29.3540   -0.3063 H         1 UNK         0.0815 
    108 H108       27.3480   29.6659   -0.6473 H         1 UNK         0.0815 
    109 H109       28.4552   31.0058   -0.3834 H         1 UNK         0.0815 
    110 H110       27.8124   31.5924    3.3766 H         1 UNK         0.2987 
    111 H111       29.9977   31.0341    4.8956 H         1 UNK         0.0949 
    112 H112       28.0874   32.3946    5.6528 H         1 UNK         0.0806 
    113 H113       29.5819   33.2603    5.9584 H         1 UNK         0.0806 
    114 H114       28.5697   33.7250    4.5978 H         1 UNK         0.0806 
    115 H115       30.1140   32.9376    1.9941 H         1 UNK         0.3010 
    116 H116       32.5289   34.3821    2.3803 H         1 UNK         0.0829 
    117 H117       31.2467   33.3114   -0.1960 H         1 UNK         0.0813 
    118 H118       32.5145   34.5273   -0.1208 H         1 UNK         0.0813 
    119 H119       30.9295   34.8815    0.5447 H         1 UNK         0.0813 
    120 H120       31.9828   30.9621    1.6571 H         1 UNK         0.3038 
    121 H121       34.7660   30.4514    0.8428 H         1 UNK         0.0769 
    122 H122       32.9162   29.2000   -0.2289 H         1 UNK         0.0811 
    123 H123       32.4049   28.5762    1.3371 H         1 UNK         0.0811 
    124 H124       33.9611   28.1073    0.6658 H         1 UNK         0.0811 
    125 H125       34.9977   31.7053    3.0930 H         1 UNK         0.3204 
    126 H126       36.0367   31.8162    5.0152 H         1 UNK         0.0748 
    127 H127       36.7837   28.8720    4.6165 H         1 UNK         0.0771 
    128 H128       37.6662   30.2574    3.9748 H         1 UNK         0.0771 
    129 H129       37.5755   29.9966    5.7087 H         1 UNK         0.0771 
    130 H130       33.6345   29.2647    4.9516 H         1 UNK         0.2980 
    131 H131       33.5766   28.6921    7.7109 H         1 UNK         0.0545 
    132 H132       31.3953   32.0851    7.7044 H         1 UNK         0.3459 
    133 H133       32.2734   31.6358    6.2630 H         1 UNK         0.3459 
    134 H134       31.3802   27.5746    7.2418 H         1 UNK         0.0616 
    135 H135       32.6744   27.0937    6.1878 H         1 UNK         0.0616 
    136 H136       31.1088   27.3680    2.8555 H         1 UNK         0.0634 
    137 H137       32.4124   26.7795    3.8565 H         1 UNK         0.0634 
@<TRIPOS>BOND
     1    1    2 1    
     2    1   72 1    
     3    1   73 1    
     4    1   74 1    
     5    2    3 2    
     6    2    4 am   BACKBONE|DICT|INTERRES
     7    4    5 1    
     8    4   75 1    
     9    5    6 1    
    10    5   35 1    
    11    5   76 1    
    12    6    7 1    
    13    6   77 1    
    14    6   78 1    
    15    7    8 1    
    16    8    9 1    
    17    8   79 1    
    18    8   80 1    
    19    9   10 ar   
    20    9   14 ar   
    21   10   11 ar   
    22   10   81 1    
    23   11   12 ar   
    24   11   71 1    
    25   12   13 ar   
    26   12   82 1    
    27   13   14 ar   
    28   13   15 1    
    29   14   83 1    
    30   15   16 1    
    31   15   84 1    
    32   15   85 1    
    33   16   17 1    
    34   17   18 1    
    35   17   86 1    
    36   17   87 1    
    37   18   19 1    
    38   18   37 1    
    39   18   88 1    
    40   19   20 am   BACKBONE|DICT|INTERRES
    41   19   89 1    
    42   20   21 2    
    43   20   22 1    
    44   22   23 1    
    45   22   24 1    
    46   22   90 1    
    47   23   91 1    
    48   23   92 1    
    49   23   93 1    
    50   24   25 am   BACKBONE|DICT|INTERRES
    51   24   94 1    
    52   25   26 2    
    53   25   27 1    
    54   27   28 1    
    55   27   29 1    
    56   27   95 1    
    57   28   96 1    
    58   28   97 1    
    59   28   98 1    
    60   29   30 am   BACKBONE|DICT|INTERRES
    61   29   99 1    
    62   30   31 2    
    63   30   32 1    
    64   32   33 1    
    65   32   34 1    
    66   32  100 1    
    67   33  101 1    
    68   33  102 1    
    69   33  103 1    
    70   34   35 am   BACKBONE|DICT|INTERRES
    71   34  104 1    
    72   35   36 2    
    73   37   38 2    
    74   37   39 am   BACKBONE|DICT|INTERRES
    75   39   40 1    
    76   39  105 1    
    77   40   41 1    
    78   40   42 1    
    79   40  106 1    
    80   41  107 1    
    81   41  108 1    
    82   41  109 1    
    83   42   43 2    
    84   42   44 am   BACKBONE|DICT|INTERRES
    85   44   45 1    
    86   44  110 1    
    87   45   46 1    
    88   45   47 1    
    89   45  111 1    
    90   46  112 1    
    91   46  113 1    
    92   46  114 1    
    93   47   48 2    
    94   47   49 am   BACKBONE|DICT|INTERRES
    95   49   50 1    
    96   49  115 1    
    97   50   51 1    
    98   50   52 1    
    99   50  116 1    
   100   51  117 1    
   101   51  118 1    
   102   51  119 1    
   103   52   53 2    
   104   52   54 am   BACKBONE|DICT|INTERRES
   105   54   55 1    
   106   54  120 1    
   107   55   56 1    
   108   55   57 1    
   109   55  121 1    
   110   56  122 1    
   111   56  123 1    
   112   56  124 1    
   113   57   58 2    
   114   57   59 am   BACKBONE|DICT|INTERRES
   115   59   60 1    
   116   59  125 1    
   117   60   61 1    
   118   60   62 1    
   119   60  126 1    
   120   61  127 1    
   121   61  128 1    
   122   61  129 1    
   123   62   63 2    
   124   62   64 am   BACKBONE|DICT|INTERRES
   125   64   65 1    
   126   64  130 1    
   127   65   66 1    
   128   65   69 1    
   129   65  131 1    
   130   66   67 am   BACKBONE|DICT|INTERRES
   131   66   68 2    
   132   67  132 1    
   133   67  133 1    
   134   69   70 1    
   135   69  134 1    
   136   69  135 1    
   137   70   71 1    
   138   71  136 1    
   139   71  137 1    
@<TRIPOS>SUBSTRUCTURE
     1 UNK         1 GROUP             0       ****    0 ROOT    
