@<TRIPOS>MOLECULE
3R136
137   139    1
SMALL
USER_CHARGES


@<TRIPOS>ATOM
      1 CA         24.4591   23.4507    4.5998 C.3       0 UNK        -0.1979 
      2 C          25.5749   23.4382    3.5651 C.2       0 UNK         0.4864 
      3 O          26.0385   24.5069    3.1678 O.2       0 UNK        -0.5359 
      4 N          26.0023   22.2364    3.1453 N.am      1 UNK        -0.4318 
      5 CA         27.0216   21.9499    2.1245 C.3       1 UNK         0.0824 
      6 C6         28.3602   22.7002    2.3742 C.3       12 UNK        -0.0944 
      7 S7         29.8025   21.9224    1.5684 S.3       12 UNK        -0.2672 
      8 C8         31.1058   22.1725    2.8177 C.3       12 UNK         0.0333 
      9 C9         31.4362   23.6478    2.9949 C.ar      12 UNK        -0.0807 
     10 C10        32.3083   24.2857    2.1086 C.ar      12 UNK        -0.0894 
     11 C11        32.5926   25.6485    2.2428 C.ar      12 UNK        -0.0804 
     12 C12        31.9995   26.3700    3.2864 C.ar      12 UNK        -0.0824 
     13 C13        31.1078   25.7478    4.1664 C.ar      12 UNK        -0.0762 
     14 C14        30.8487   24.3823    4.0282 C.ar      12 UNK        -0.0782 
     15 C15        30.3851   26.5445    5.2443 C.3       12 UNK         0.0230 
     16 S16        28.6428   26.8514    4.7949 S.3       12 UNK        -0.2608 
     17 C17        28.7746   28.3526    3.7655 C.3       12 UNK        -0.0989 
     18 CA         29.0634   28.0426    2.2722 C.3       5 UNK         0.0716 
     19 N          28.0383   27.2282    1.6186 N.am      5 UNK        -0.4135 
     20 C          26.8083   27.5981    1.2405 C.2       4 UNK         0.5031 
     21 O          26.2986   28.6824    1.5281 O.2       4 UNK        -0.5229 
     22 CA         26.0497   26.5977    0.3368 C.3       4 UNK         0.0329 
     23 CB         25.0751   27.3037   -0.6290 C.3       4 UNK        -0.2001 
     24 N          26.9338   25.6805   -0.4064 N.am      4 UNK        -0.4303 
     25 C          27.9216   26.0158   -1.2573 C.2       3 UNK         0.5044 
     26 O          28.1912   27.1795   -1.5561 O.2       3 UNK        -0.5152 
     27 CA         28.8240   24.8942   -1.8082 C.3       3 UNK         0.0319 
     28 CB         30.2260   24.9946   -1.1790 C.3       3 UNK        -0.2001 
     29 N          28.3044   23.5485   -1.5680 N.am      3 UNK        -0.4354 
     30 C          27.2942   22.9762   -2.2387 C.2       2 UNK         0.4964 
     31 O          26.7373   23.4879   -3.2099 O.2       2 UNK        -0.5047 
     32 CA         26.8004   21.6153   -1.7094 C.3       2 UNK         0.0288 
     33 CB         27.4592   20.4632   -2.4850 C.3       2 UNK        -0.2113 
     34 N          27.0436   21.4343   -0.2722 N.am      2 UNK        -0.4145 
     35 C          26.4915   22.1842    0.6930 C.2       1 UNK         0.5006 
     36 O          25.6521   23.0578    0.4629 O.2       1 UNK        -0.5103 
     37 C          29.4943   29.2862    1.4602 C.2       5 UNK         0.5055 
     38 O          29.9755   30.2519    2.0551 O.2       5 UNK        -0.5220 
     39 N          29.3593   29.2400    0.1231 N.am      6 UNK        -0.4450 
     40 CA         29.7853   30.2541   -0.8481 C.3       6 UNK         0.0367 
     41 CB         31.3260   30.2473   -0.9777 C.3       6 UNK        -0.1929 
     42 C          29.1888   31.6439   -0.5468 C.2       6 UNK         0.5070 
     43 O          28.0000   31.8560   -0.7851 O.2       6 UNK        -0.5237 
     44 N          30.0111   32.5518   -0.0049 N.am      7 UNK        -0.4739 
     45 CA         29.6353   33.8997    0.4356 C.3       7 UNK         0.0276 
     46 CB         30.8753   34.8064    0.3304 C.3       7 UNK        -0.1927 
     47 C          29.0341   33.9392    1.8587 C.2       7 UNK         0.5013 
     48 O          28.8915   35.0300    2.4125 O.2       7 UNK        -0.5193 
     49 N          28.7150   32.7655    2.4233 N.am      8 UNK        -0.4253 
     50 CA         28.2813   32.4931    3.7968 C.3       8 UNK         0.0242 
     51 CB         27.0147   33.2878    4.1841 C.3       8 UNK        -0.2000 
     52 C          29.4513   32.6606    4.7803 C.2       8 UNK         0.4948 
     53 O          29.3410   33.4048    5.7570 O.2       8 UNK        -0.5275 
     54 N          30.5579   31.9648    4.4916 N.am      9 UNK        -0.4246 
     55 CA         31.7751   31.9406    5.2994 C.3       9 UNK         0.0261 
     56 CB         32.8109   32.8966    4.6834 C.3       9 UNK        -0.1959 
     57 C          32.3155   30.5075    5.3447 C.2       9 UNK         0.5033 
     58 O          32.1160   29.7530    4.3917 O.2       9 UNK        -0.5390 
     59 N          32.9986   30.1568    6.4409 N.am      10 UNK        -0.4215 
     60 CA         33.6417   28.8548    6.6247 C.3       10 UNK         0.0240 
     61 CB         33.9684   28.6504    8.1133 C.3       10 UNK        -0.1982 
     62 C          34.9111   28.7428    5.7665 C.2       10 UNK         0.4970 
     63 O          35.7528   29.6429    5.8153 O.2       10 UNK        -0.4916 
     64 N          35.0306   27.6368    5.0248 N.am      11 UNK        -0.4279 
     65 CA         36.1847   27.3309    4.1623 C.3       11 UNK         0.1003 
     66 C          37.3345   26.5755    4.8903 C.2       11 UNK         0.5709 
     67 N          37.1900   26.1939    6.1544 N.am      11 UNK        -0.7358 
     68 O          38.3878   26.3439    4.3012 O.2       11 UNK        -0.4999 
     69 C69        35.7500   26.5955    2.8671 C.3       12 UNK        -0.0954 
     70 S70        34.6006   27.6007    1.8687 S.3       12 UNK        -0.2268 
     71 C71        33.4765   26.3310    1.2008 C.3       12 UNK         0.0203 
     72 H72        23.5878   23.9711    4.2032 H         1 UNK         0.0888 
     73 H73        24.1530   22.4444    4.8850 H         1 UNK         0.0888 
     74 H74        24.7882   23.9725    5.4981 H         1 UNK         0.0888 
     75 H75        25.5460   21.4151    3.5178 H         1 UNK         0.3017 
     76 H76        27.2123   20.8798    2.2236 H         1 UNK         0.0873 
     77 H77        28.3031   23.7440    2.0596 H         1 UNK         0.0745 
     78 H78        28.5493   22.7243    3.4476 H         1 UNK         0.0745 
     79 H79        32.0009   21.6318    2.5066 H         1 UNK         0.0705 
     80 H80        30.7963   21.7280    3.7650 H         1 UNK         0.0705 
     81 H81        32.7441   23.7216    1.2951 H         1 UNK         0.1334 
     82 H82        32.1885   27.4304    3.3797 H         1 UNK         0.1417 
     83 H83        30.1592   23.9016    4.7086 H         1 UNK         0.1562 
     84 H84        30.8875   27.4918    5.4375 H         1 UNK         0.0748 
     85 H85        30.4136   25.9879    6.1821 H         1 UNK         0.0748 
     86 H86        29.5507   28.9849    4.1983 H         1 UNK         0.0940 
     87 H87        27.8450   28.9158    3.8578 H         1 UNK         0.0940 
     88 H88        29.9454   27.4139    2.2325 H         1 UNK         0.0703 
     89 H89        28.3297   26.2962    1.3670 H         1 UNK         0.3081 
     90 H90        25.4564   25.9731    1.0055 H         1 UNK         0.0719 
     91 H91        25.5937   27.9993   -1.2897 H         1 UNK         0.0809 
     92 H92        24.5421   26.5838   -1.2500 H         1 UNK         0.0809 
     93 H93        24.3247   27.8746   -0.0809 H         1 UNK         0.0809 
     94 H94        26.7623   24.6973   -0.2261 H         1 UNK         0.2990 
     95 H95        28.9161   25.0468   -2.8856 H         1 UNK         0.0690 
     96 H96        30.9037   24.2512   -1.5992 H         1 UNK         0.0788 
     97 H97        30.1981   24.8472   -0.0983 H         1 UNK         0.0788 
     98 H98        30.6713   25.9737   -1.3622 H         1 UNK         0.0788 
     99 H99        28.7161   23.0371   -0.8000 H         1 UNK         0.2993 
    100 H100       25.7217   21.5729   -1.8761 H         1 UNK         0.0949 
    101 H101       28.5403   20.4441   -2.3403 H         1 UNK         0.0767 
    102 H102       27.0607   19.4969   -2.1750 H         1 UNK         0.0767 
    103 H103       27.2752   20.5587   -3.5562 H         1 UNK         0.0767 
    104 H104       27.7390   20.7474   -0.0145 H         1 UNK         0.3013 
    105 H105       28.9047   28.4306   -0.2930 H         1 UNK         0.3121 
    106 H106       29.3735   29.9490   -1.8115 H         1 UNK         0.0774 
    107 H107       31.6648   30.9904   -1.7008 H         1 UNK         0.0815 
    108 H108       31.8257   30.4505   -0.0298 H         1 UNK         0.0815 
    109 H109       31.6801   29.2779   -1.3288 H         1 UNK         0.0815 
    110 H110       30.9587   32.2641    0.1954 H         1 UNK         0.2987 
    111 H111       28.8713   34.2904   -0.2402 H         1 UNK         0.0949 
    112 H112       31.2873   34.8009   -0.6789 H         1 UNK         0.0806 
    113 H113       30.6282   35.8419    0.5682 H         1 UNK         0.0806 
    114 H114       31.6623   34.4932    1.0176 H         1 UNK         0.0806 
    115 H115       28.9678   31.9329    1.8999 H         1 UNK         0.3010 
    116 H116       28.0132   31.4361    3.8208 H         1 UNK         0.0829 
    117 H117       26.2181   33.1450    3.4541 H         1 UNK         0.0813 
    118 H118       26.6331   32.9562    5.1504 H         1 UNK         0.0813 
    119 H119       27.2079   34.3574    4.2673 H         1 UNK         0.0813 
    120 H120       30.5559   31.3244    3.6996 H         1 UNK         0.3038 
    121 H121       31.5534   32.2558    6.3214 H         1 UNK         0.0769 
    122 H122       33.7359   32.9000    5.2614 H         1 UNK         0.0811 
    123 H123       32.4382   33.9209    4.6595 H         1 UNK         0.0811 
    124 H124       33.0640   32.6089    3.6620 H         1 UNK         0.0811 
    125 H125       33.1617   30.8474    7.1595 H         1 UNK         0.3204 
    126 H126       32.9396   28.0757    6.3241 H         1 UNK         0.0748 
    127 H127       34.4255   27.6746    8.2827 H         1 UNK         0.0771 
    128 H128       34.6646   29.4047    8.4828 H         1 UNK         0.0771 
    129 H129       33.0682   28.6952    8.7268 H         1 UNK         0.0771 
    130 H130       34.2978   26.9435    5.0395 H         1 UNK         0.2980 
    131 H131       36.6309   28.2760    3.8467 H         1 UNK         0.0545 
    132 H132       37.9473   25.7117    6.6126 H         1 UNK         0.3459 
    133 H133       36.3365   26.3832    6.6532 H         1 UNK         0.3459 
    134 H134       35.2895   25.6370    3.1125 H         1 UNK         0.0616 
    135 H135       36.6132   26.3699    2.2384 H         1 UNK         0.0616 
    136 H136       32.8280   26.8024    0.4612 H         1 UNK         0.0634 
    137 H137       34.0744   25.5941    0.6621 H         1 UNK         0.0634 
@<TRIPOS>BOND
     1    1    2 1    
     2    1   72 1    
     3    1   73 1    
     4    1   74 1    
     5    2    3 2    
     6    2    4 am   BACKBONE|DICT|INTERRES
     7    4    5 1    
     8    4   75 1    
     9    5    6 1    
    10    5   35 1    
    11    5   76 1    
    12    6    7 1    
    13    6   77 1    
    14    6   78 1    
    15    7    8 1    
    16    8    9 1    
    17    8   79 1    
    18    8   80 1    
    19    9   10 ar   
    20    9   14 ar   
    21   10   11 ar   
    22   10   81 1    
    23   11   12 ar   
    24   11   71 1    
    25   12   13 ar   
    26   12   82 1    
    27   13   14 ar   
    28   13   15 1    
    29   14   83 1    
    30   15   16 1    
    31   15   84 1    
    32   15   85 1    
    33   16   17 1    
    34   17   18 1    
    35   17   86 1    
    36   17   87 1    
    37   18   19 1    
    38   18   37 1    
    39   18   88 1    
    40   19   20 am   BACKBONE|DICT|INTERRES
    41   19   89 1    
    42   20   21 2    
    43   20   22 1    
    44   22   23 1    
    45   22   24 1    
    46   22   90 1    
    47   23   91 1    
    48   23   92 1    
    49   23   93 1    
    50   24   25 am   BACKBONE|DICT|INTERRES
    51   24   94 1    
    52   25   26 2    
    53   25   27 1    
    54   27   28 1    
    55   27   29 1    
    56   27   95 1    
    57   28   96 1    
    58   28   97 1    
    59   28   98 1    
    60   29   30 am   BACKBONE|DICT|INTERRES
    61   29   99 1    
    62   30   31 2    
    63   30   32 1    
    64   32   33 1    
    65   32   34 1    
    66   32  100 1    
    67   33  101 1    
    68   33  102 1    
    69   33  103 1    
    70   34   35 am   BACKBONE|DICT|INTERRES
    71   34  104 1    
    72   35   36 2    
    73   37   38 2    
    74   37   39 am   BACKBONE|DICT|INTERRES
    75   39   40 1    
    76   39  105 1    
    77   40   41 1    
    78   40   42 1    
    79   40  106 1    
    80   41  107 1    
    81   41  108 1    
    82   41  109 1    
    83   42   43 2    
    84   42   44 am   BACKBONE|DICT|INTERRES
    85   44   45 1    
    86   44  110 1    
    87   45   46 1    
    88   45   47 1    
    89   45  111 1    
    90   46  112 1    
    91   46  113 1    
    92   46  114 1    
    93   47   48 2    
    94   47   49 am   BACKBONE|DICT|INTERRES
    95   49   50 1    
    96   49  115 1    
    97   50   51 1    
    98   50   52 1    
    99   50  116 1    
   100   51  117 1    
   101   51  118 1    
   102   51  119 1    
   103   52   53 2    
   104   52   54 am   BACKBONE|DICT|INTERRES
   105   54   55 1    
   106   54  120 1    
   107   55   56 1    
   108   55   57 1    
   109   55  121 1    
   110   56  122 1    
   111   56  123 1    
   112   56  124 1    
   113   57   58 2    
   114   57   59 am   BACKBONE|DICT|INTERRES
   115   59   60 1    
   116   59  125 1    
   117   60   61 1    
   118   60   62 1    
   119   60  126 1    
   120   61  127 1    
   121   61  128 1    
   122   61  129 1    
   123   62   63 2    
   124   62   64 am   BACKBONE|DICT|INTERRES
   125   64   65 1    
   126   64  130 1    
   127   65   66 1    
   128   65   69 1    
   129   65  131 1    
   130   66   67 am   BACKBONE|DICT|INTERRES
   131   66   68 2    
   132   67  132 1    
   133   67  133 1    
   134   69   70 1    
   135   69  134 1    
   136   69  135 1    
   137   70   71 1    
   138   71  136 1    
   139   71  137 1    
@<TRIPOS>SUBSTRUCTURE
     1 UNK         1 GROUP             0       ****    0 ROOT    
