@<TRIPOS>MOLECULE
3R136
137   139    1
SMALL
USER_CHARGES


@<TRIPOS>ATOM
      1 CA         32.5464   20.3782   -2.9310 C.3       0 UNK        -0.1979 
      2 C          31.5524   21.3739   -2.3504 C.2       0 UNK         0.4864 
      3 O          30.3492   21.2304   -2.5741 O.2       0 UNK        -0.5359 
      4 N          32.0516   22.3704   -1.6037 N.am      1 UNK        -0.4318 
      5 CA         31.2944   23.4715   -0.9902 C.3       1 UNK         0.0824 
      6 C6         30.1891   22.9731   -0.0107 C.3       12 UNK        -0.0944 
      7 S7         29.9734   24.0559    1.4434 S.3       12 UNK        -0.2672 
      8 C8         30.3307   22.8888    2.7926 C.3       12 UNK         0.0333 
      9 C9         30.0004   23.4956    4.1460 C.ar      12 UNK        -0.0807 
     10 C10        30.9958   24.1112    4.9110 C.ar      12 UNK        -0.0894 
     11 C11        30.6903   24.6588    6.1611 C.ar      12 UNK        -0.0804 
     12 C12        29.3724   24.6108    6.6277 C.ar      12 UNK        -0.0824 
     13 C13        28.3639   24.0169    5.8635 C.ar      12 UNK        -0.0762 
     14 C14        28.6927   23.4328    4.6363 C.ar      12 UNK        -0.0782 
     15 C15        26.9274   24.0086    6.3787 C.3       12 UNK         0.0230 
     16 S16        25.7037   24.6124    5.1631 S.3       12 UNK        -0.2608 
     17 C17        26.4011   26.2188    4.6437 C.3       12 UNK        -0.0989 
     18 CA         26.9862   26.1607    3.2086 C.3       5 UNK         0.0716 
     19 N          25.9682   25.9988    2.1747 N.am      5 UNK        -0.4135 
     20 C          25.7044   24.8729    1.5027 C.2       4 UNK         0.5031 
     21 O          26.2053   23.7786    1.7640 O.2       4 UNK        -0.5229 
     22 CA         24.7386   24.9771    0.3061 C.3       4 UNK         0.0329 
     23 CB         23.2745   25.1398    0.7628 C.3       4 UNK        -0.2001 
     24 N          25.1402   25.9955   -0.6766 N.am      4 UNK        -0.4303 
     25 C          25.1615   27.3295   -0.5354 C.2       3 UNK         0.5044 
     26 O          24.6954   27.9180    0.4421 O.2       3 UNK        -0.5152 
     27 CA         25.8650   28.1312   -1.6548 C.3       3 UNK         0.0319 
     28 CB         26.2513   29.5537   -1.1945 C.3       3 UNK        -0.2001 
     29 N          27.0431   27.4614   -2.2356 N.am      3 UNK        -0.4354 
     30 C          28.1049   26.9861   -1.5662 C.2       2 UNK         0.4964 
     31 O          28.2010   26.9744   -0.3395 O.2       2 UNK        -0.5047 
     32 CA         29.2695   26.4431   -2.3978 C.3       2 UNK         0.0288 
     33 CB         30.2537   27.5742   -2.7534 C.3       2 UNK        -0.2113 
     34 N          29.9371   25.4213   -1.5976 N.am      2 UNK        -0.4145 
     35 C          30.7692   24.4771   -2.0454 C.2       1 UNK         0.5006 
     36 O          31.1350   24.4024   -3.2225 O.2       1 UNK        -0.5103 
     37 C          27.7541   27.4398    2.8574 C.2       5 UNK         0.5055 
     38 O          27.1408   28.5055    2.7572 O.2       5 UNK        -0.5220 
     39 N          29.0731   27.3145    2.6631 N.am      6 UNK        -0.4450 
     40 CA         29.9581   28.3397    2.1005 C.3       6 UNK         0.0367 
     41 CB         31.2180   27.6476    1.5451 C.3       6 UNK        -0.1929 
     42 C          30.3038   29.4827    3.0734 C.2       6 UNK         0.5070 
     43 O          31.4697   29.8648    3.1715 O.2       6 UNK        -0.5237 
     44 N          29.3016   30.0292    3.7716 N.am      7 UNK        -0.4739 
     45 CA         29.4341   31.0951    4.7749 C.3       7 UNK         0.0276 
     46 CB         28.0703   31.3223    5.4451 C.3       7 UNK        -0.1927 
     47 C          29.9980   32.4198    4.2278 C.2       7 UNK         0.5013 
     48 O          30.5780   33.1926    4.9905 O.2       7 UNK        -0.5193 
     49 N          29.8310   32.6482    2.9195 N.am      8 UNK        -0.4253 
     50 CA         30.3896   33.7831    2.1842 C.3       8 UNK         0.0242 
     51 CB         29.4529   34.1070    1.0066 C.3       8 UNK        -0.2000 
     52 C          31.8266   33.5365    1.6800 C.2       8 UNK         0.4948 
     53 O          32.4069   34.4522    1.0938 O.2       8 UNK        -0.5275 
     54 N          32.3693   32.3258    1.8712 N.am      9 UNK        -0.4246 
     55 CA         33.6680   31.9001    1.3573 C.3       9 UNK         0.0261 
     56 CB         33.4804   31.2297   -0.0216 C.3       9 UNK        -0.1959 
     57 C          34.3679   31.0257    2.4087 C.2       9 UNK         0.5033 
     58 O          34.7218   31.5399    3.4707 O.2       9 UNK        -0.5390 
     59 N          34.5671   29.7357    2.1019 N.am      10 UNK        -0.4215 
     60 CA         35.3398   28.7610    2.8819 C.3       10 UNK         0.0240 
     61 CB         35.3413   27.4156    2.1365 C.3       10 UNK        -0.1982 
     62 C          34.8947   28.5562    4.3425 C.2       10 UNK         0.4970 
     63 O          35.7388   28.2166    5.1730 O.2       10 UNK        -0.4916 
     64 N          33.6043   28.7589    4.6296 N.am      11 UNK        -0.4279 
     65 CA         33.0182   28.7057    5.9760 C.3       11 UNK         0.1003 
     66 C          32.8570   30.1127    6.6283 C.2       11 UNK         0.5709 
     67 N          33.3102   31.1979    6.0112 N.am      11 UNK        -0.7358 
     68 O          32.3219   30.2294    7.7276 O.2       11 UNK        -0.4999 
     69 C69        31.6966   27.8852    5.9677 C.3       12 UNK        -0.0954 
     70 S70        31.4237   26.9802    7.5253 S.3       12 UNK        -0.2268 
     71 C71        31.7889   25.2681    7.0244 C.3       12 UNK         0.0203 
     72 H72        32.4890   20.3832   -4.0191 H         1 UNK         0.0888 
     73 H73        33.5721   20.6101   -2.6447 H         1 UNK         0.0888 
     74 H74        32.3168   19.3718   -2.5818 H         1 UNK         0.0888 
     75 H75        33.0538   22.4329   -1.4905 H         1 UNK         0.3017 
     76 H76        32.0391   24.0206   -0.4116 H         1 UNK         0.0873 
     77 H77        29.2275   22.8559   -0.5147 H         1 UNK         0.0745 
     78 H78        30.4402   21.9741    0.3489 H         1 UNK         0.0745 
     79 H79        31.3806   22.5946    2.7492 H         1 UNK         0.0705 
     80 H80        29.7462   21.9781    2.6511 H         1 UNK         0.0705 
     81 H81        32.0104   24.1500    4.5382 H         1 UNK         0.1334 
     82 H82        29.1348   25.0421    7.5908 H         1 UNK         0.1417 
     83 H83        27.9193   22.9639    4.0414 H         1 UNK         0.1562 
     84 H84        26.8388   24.6152    7.2814 H         1 UNK         0.0748 
     85 H85        26.6630   22.9904    6.6667 H         1 UNK         0.0748 
     86 H86        27.1652   26.5241    5.3614 H         1 UNK         0.0940 
     87 H87        25.6146   26.9734    4.7049 H         1 UNK         0.0940 
     88 H88        27.6906   25.3332    3.1422 H         1 UNK         0.0703 
     89 H89        25.5568   26.8636    1.8306 H         1 UNK         0.3081 
     90 H90        24.8012   24.0262   -0.2258 H         1 UNK         0.0719 
     91 H91        23.1195   26.0484    1.3447 H         1 UNK         0.0809 
     92 H92        22.5945   25.1663   -0.0885 H         1 UNK         0.0809 
     93 H93        22.9733   24.3020    1.3930 H         1 UNK         0.0809 
     94 H94        25.5710   25.6268   -1.5129 H         1 UNK         0.2990 
     95 H95        25.1355   28.2291   -2.4601 H         1 UNK         0.0690 
     96 H96        26.7288   30.1163   -1.9966 H         1 UNK         0.0788 
     97 H97        26.9382   29.5274   -0.3470 H         1 UNK         0.0788 
     98 H98        25.3723   30.1195   -0.8831 H         1 UNK         0.0788 
     99 H99        27.0552   27.4087   -3.2454 H         1 UNK         0.2993 
    100 H100       28.8781   25.9854   -3.3089 H         1 UNK         0.0949 
    101 H101       30.6724   28.0367   -1.8583 H         1 UNK         0.0767 
    102 H102       31.0826   27.2083   -3.3593 H         1 UNK         0.0767 
    103 H103       29.7583   28.3593   -3.3260 H         1 UNK         0.0767 
    104 H104       29.6585   25.4199   -0.6213 H         1 UNK         0.3013 
    105 H105       29.4837   26.3984    2.7799 H         1 UNK         0.3121 
    106 H106       29.4409   28.8028    1.2576 H         1 UNK         0.0774 
    107 H107       31.8861   28.3638    1.0674 H         1 UNK         0.0815 
    108 H108       30.9600   26.9070    0.7889 H         1 UNK         0.0815 
    109 H109       31.7811   27.1448    2.3323 H         1 UNK         0.0815 
    110 H110       28.3680   29.6633    3.5971 H         1 UNK         0.2987 
    111 H111       30.1333   30.7498    5.5376 H         1 UNK         0.0949 
    112 H112       27.7102   30.4139    5.9285 H         1 UNK         0.0806 
    113 H113       28.1358   32.0930    6.2146 H         1 UNK         0.0806 
    114 H114       27.3158   31.6418    4.7251 H         1 UNK         0.0806 
    115 H115       29.3332   31.9547    2.3804 H         1 UNK         0.3010 
    116 H116       30.4234   34.6549    2.8413 H         1 UNK         0.0829 
    117 H117       28.4424   34.3269    1.3519 H         1 UNK         0.0813 
    118 H118       29.8013   34.9828    0.4573 H         1 UNK         0.0813 
    119 H119       29.3942   33.2803    0.2974 H         1 UNK         0.0813 
    120 H120       31.8725   31.6304    2.4214 H         1 UNK         0.3038 
    121 H121       34.3144   32.7701    1.2233 H         1 UNK         0.0769 
    122 H122       34.4298   30.8782   -0.4281 H         1 UNK         0.0811 
    123 H123       33.0751   31.9395   -0.7431 H         1 UNK         0.0811 
    124 H124       32.7927   30.3848    0.0212 H         1 UNK         0.0811 
    125 H125       34.2199   29.4134    1.2112 H         1 UNK         0.3204 
    126 H126       36.3670   29.1298    2.9161 H         1 UNK         0.0748 
    127 H127       35.9341   26.6720    2.6715 H         1 UNK         0.0771 
    128 H128       34.3337   27.0121    2.0299 H         1 UNK         0.0771 
    129 H129       35.7731   27.5120    1.1401 H         1 UNK         0.0771 
    130 H130       32.9786   29.1047    3.9056 H         1 UNK         0.2980 
    131 H131       33.7212   28.1795    6.6237 H         1 UNK         0.0545 
    132 H132       33.1834   32.0955    6.4494 H         1 UNK         0.3459 
    133 H133       33.7784   31.1432    5.1118 H         1 UNK         0.3459 
    134 H134       31.6989   27.1635    5.1493 H         1 UNK         0.0616 
    135 H135       30.8309   28.5215    5.7881 H         1 UNK         0.0616 
    136 H136       32.7527   25.2451    6.5131 H         1 UNK         0.0634 
    137 H137       31.9023   24.6599    7.9227 H         1 UNK         0.0634 
@<TRIPOS>BOND
     1    1    2 1    
     2    1   72 1    
     3    1   73 1    
     4    1   74 1    
     5    2    3 2    
     6    2    4 am   BACKBONE|DICT|INTERRES
     7    4    5 1    
     8    4   75 1    
     9    5    6 1    
    10    5   35 1    
    11    5   76 1    
    12    6    7 1    
    13    6   77 1    
    14    6   78 1    
    15    7    8 1    
    16    8    9 1    
    17    8   79 1    
    18    8   80 1    
    19    9   10 ar   
    20    9   14 ar   
    21   10   11 ar   
    22   10   81 1    
    23   11   12 ar   
    24   11   71 1    
    25   12   13 ar   
    26   12   82 1    
    27   13   14 ar   
    28   13   15 1    
    29   14   83 1    
    30   15   16 1    
    31   15   84 1    
    32   15   85 1    
    33   16   17 1    
    34   17   18 1    
    35   17   86 1    
    36   17   87 1    
    37   18   19 1    
    38   18   37 1    
    39   18   88 1    
    40   19   20 am   BACKBONE|DICT|INTERRES
    41   19   89 1    
    42   20   21 2    
    43   20   22 1    
    44   22   23 1    
    45   22   24 1    
    46   22   90 1    
    47   23   91 1    
    48   23   92 1    
    49   23   93 1    
    50   24   25 am   BACKBONE|DICT|INTERRES
    51   24   94 1    
    52   25   26 2    
    53   25   27 1    
    54   27   28 1    
    55   27   29 1    
    56   27   95 1    
    57   28   96 1    
    58   28   97 1    
    59   28   98 1    
    60   29   30 am   BACKBONE|DICT|INTERRES
    61   29   99 1    
    62   30   31 2    
    63   30   32 1    
    64   32   33 1    
    65   32   34 1    
    66   32  100 1    
    67   33  101 1    
    68   33  102 1    
    69   33  103 1    
    70   34   35 am   BACKBONE|DICT|INTERRES
    71   34  104 1    
    72   35   36 2    
    73   37   38 2    
    74   37   39 am   BACKBONE|DICT|INTERRES
    75   39   40 1    
    76   39  105 1    
    77   40   41 1    
    78   40   42 1    
    79   40  106 1    
    80   41  107 1    
    81   41  108 1    
    82   41  109 1    
    83   42   43 2    
    84   42   44 am   BACKBONE|DICT|INTERRES
    85   44   45 1    
    86   44  110 1    
    87   45   46 1    
    88   45   47 1    
    89   45  111 1    
    90   46  112 1    
    91   46  113 1    
    92   46  114 1    
    93   47   48 2    
    94   47   49 am   BACKBONE|DICT|INTERRES
    95   49   50 1    
    96   49  115 1    
    97   50   51 1    
    98   50   52 1    
    99   50  116 1    
   100   51  117 1    
   101   51  118 1    
   102   51  119 1    
   103   52   53 2    
   104   52   54 am   BACKBONE|DICT|INTERRES
   105   54   55 1    
   106   54  120 1    
   107   55   56 1    
   108   55   57 1    
   109   55  121 1    
   110   56  122 1    
   111   56  123 1    
   112   56  124 1    
   113   57   58 2    
   114   57   59 am   BACKBONE|DICT|INTERRES
   115   59   60 1    
   116   59  125 1    
   117   60   61 1    
   118   60   62 1    
   119   60  126 1    
   120   61  127 1    
   121   61  128 1    
   122   61  129 1    
   123   62   63 2    
   124   62   64 am   BACKBONE|DICT|INTERRES
   125   64   65 1    
   126   64  130 1    
   127   65   66 1    
   128   65   69 1    
   129   65  131 1    
   130   66   67 am   BACKBONE|DICT|INTERRES
   131   66   68 2    
   132   67  132 1    
   133   67  133 1    
   134   69   70 1    
   135   69  134 1    
   136   69  135 1    
   137   70   71 1    
   138   71  136 1    
   139   71  137 1    
@<TRIPOS>SUBSTRUCTURE
     1 UNK         1 GROUP             0       ****    0 ROOT    
