@<TRIPOS>MOLECULE
3R136
137   139    1
SMALL
USER_CHARGES


@<TRIPOS>ATOM
      1 CA         29.6672   19.8119   -0.8436 C.3       0 UNK        -0.1979 
      2 C          29.6551   21.1061   -1.6438 C.2       0 UNK         0.4864 
      3 O          29.5947   21.0649   -2.8738 O.2       0 UNK        -0.5359 
      4 N          29.7175   22.2529   -0.9557 N.am      1 UNK        -0.4318 
      5 CA         29.6549   23.5892   -1.5525 C.3       1 UNK         0.0824 
      6 C6         30.1995   24.6720   -0.5872 C.3       12 UNK        -0.0944 
      7 S7         32.0203   24.6340   -0.5001 S.3       12 UNK        -0.2672 
      8 C8         32.3383   23.6329    0.9900 C.3       12 UNK         0.0333 
      9 C9         31.9798   24.3584    2.2801 C.ar      12 UNK        -0.0807 
     10 C10        32.6068   25.5638    2.6057 C.ar      12 UNK        -0.0894 
     11 C11        32.3057   26.2246    3.7999 C.ar      12 UNK        -0.0804 
     12 C12        31.3763   25.6670    4.6822 C.ar      12 UNK        -0.0824 
     13 C13        30.7550   24.4516    4.3756 C.ar      12 UNK        -0.0762 
     14 C14        31.0559   23.8056    3.1718 C.ar      12 UNK        -0.0782 
     15 C15        29.7815   23.8125    5.3543 C.3       12 UNK         0.0230 
     16 S16        28.0653   23.9021    4.7593 S.3       12 UNK        -0.2608 
     17 C17        27.6771   25.6709    4.9956 C.3       12 UNK        -0.0989 
     18 CA         27.7066   26.4978    3.6776 C.3       5 UNK         0.0716 
     19 N          26.9167   25.9150    2.5838 N.am      5 UNK        -0.4135 
     20 C          25.6171   25.5855    2.5965 C.2       4 UNK         0.5031 
     21 O          24.8644   25.7655    3.5552 O.2       4 UNK        -0.5229 
     22 CA         25.0785   24.9864    1.2822 C.3       4 UNK         0.0329 
     23 CB         23.5423   24.8337    1.2688 C.3       4 UNK        -0.2001 
     24 N          25.5423   25.7287    0.1013 N.am      4 UNK        -0.4303 
     25 C          25.3284   27.0293   -0.1635 C.2       3 UNK         0.5044 
     26 O          24.6880   27.7714    0.5789 O.2       3 UNK        -0.5152 
     27 CA         25.9619   27.6352   -1.4325 C.3       3 UNK         0.0319 
     28 CB         27.0186   28.6858   -1.0493 C.3       3 UNK        -0.2001 
     29 N          26.5788   26.6461   -2.3190 N.am      3 UNK        -0.4354 
     30 C          25.9088   25.7806   -3.0927 C.2       2 UNK         0.4964 
     31 O          24.6839   25.7793   -3.2161 O.2       2 UNK        -0.5047 
     32 CA         26.7410   24.7148   -3.8302 C.3       2 UNK         0.0288 
     33 CB         26.9727   25.1333   -5.2915 C.3       2 UNK        -0.2113 
     34 N          28.0358   24.4039   -3.2073 N.am      2 UNK        -0.4145 
     35 C          28.2072   23.9008   -1.9752 C.2       1 UNK         0.5006 
     36 O          27.2870   23.7169   -1.1738 O.2       1 UNK        -0.5103 
     37 C          27.3977   27.9894    3.9513 C.2       5 UNK         0.5055 
     38 O          28.0197   28.5622    4.8486 O.2       5 UNK        -0.5220 
     39 N          26.4810   28.6170    3.1964 N.am      6 UNK        -0.4450 
     40 CA         26.0767   30.0155    3.3675 C.3       6 UNK         0.0367 
     41 CB         24.6852   30.2297    2.7449 C.3       6 UNK        -0.1929 
     42 C          27.1278   30.9841    2.7958 C.2       6 UNK         0.5070 
     43 O          26.9360   31.5344    1.7106 O.2       6 UNK        -0.5237 
     44 N          28.2239   31.1596    3.5463 N.am      7 UNK        -0.4739 
     45 CA         29.3551   32.0575    3.2804 C.3       7 UNK         0.0276 
     46 CB         28.9113   33.5346    3.3576 C.3       7 UNK        -0.1927 
     47 C          30.1073   31.7214    1.9777 C.2       7 UNK         0.5013 
     48 O          30.4834   32.6255    1.2292 O.2       7 UNK        -0.5193 
     49 N          30.3346   30.4196    1.7443 N.am      8 UNK        -0.4253 
     50 CA         31.1374   29.8970    0.6299 C.3       8 UNK         0.0242 
     51 CB         30.9884   28.3671    0.5732 C.3       8 UNK        -0.2000 
     52 C          32.6264   30.2885    0.7226 C.2       8 UNK         0.4948 
     53 O          33.2847   30.4365   -0.3074 O.2       8 UNK        -0.5275 
     54 N          33.1093   30.4627    1.9562 N.am      9 UNK        -0.4246 
     55 CA         34.4309   30.9194    2.3659 C.3       9 UNK         0.0261 
     56 CB         35.5066   29.8576    2.0561 C.3       9 UNK        -0.1959 
     57 C          34.3384   31.2150    3.8706 C.2       9 UNK         0.5033 
     58 O          33.3105   30.9156    4.4908 O.2       9 UNK        -0.5390 
     59 N          35.4059   31.7798    4.4467 N.am      10 UNK        -0.4215 
     60 CA         35.5171   32.1118    5.8720 C.3       10 UNK         0.0240 
     61 CB         36.5978   33.1962    6.0470 C.3       10 UNK        -0.1982 
     62 C          35.7767   30.8664    6.7476 C.2       10 UNK         0.4970 
     63 O          36.8047   30.7901    7.4233 O.2       10 UNK        -0.4916 
     64 N          34.8474   29.9053    6.7038 N.am      11 UNK        -0.4279 
     65 CA         34.9071   28.6303    7.4397 C.3       11 UNK         0.1003 
     66 C          34.5592   28.7394    8.9530 C.2       11 UNK         0.5709 
     67 N          34.0536   29.8654    9.4431 N.am      11 UNK        -0.7358 
     68 O          34.7620   27.7849    9.6999 O.2       11 UNK        -0.4999 
     69 C69        34.0665   27.5206    6.7512 C.3       12 UNK        -0.0954 
     70 S70        34.5586   27.2606    5.0129 S.3       12 UNK        -0.2268 
     71 C71        32.9958   27.5380    4.1240 C.3       12 UNK         0.0203 
     72 H72        30.5170   19.1968   -1.1382 H         1 UNK         0.0888 
     73 H73        29.7375   19.9953    0.2285 H         1 UNK         0.0888 
     74 H74        28.7550   19.2463   -1.0317 H         1 UNK         0.0888 
     75 H75        29.7166   22.2248    0.0525 H         1 UNK         0.3017 
     76 H76        30.2745   23.5875   -2.4525 H         1 UNK         0.0873 
     77 H77        29.9299   25.6714   -0.9343 H         1 UNK         0.0745 
     78 H78        29.7677   24.5741    0.4106 H         1 UNK         0.0745 
     79 H79        31.8084   22.6834    0.9098 H         1 UNK         0.0705 
     80 H80        33.4000   23.3841    1.0175 H         1 UNK         0.0705 
     81 H81        33.3327   25.9881    1.9251 H         1 UNK         0.1334 
     82 H82        31.1497   26.1718    5.6113 H         1 UNK         0.1417 
     83 H83        30.5761   22.8644    2.9403 H         1 UNK         0.1562 
     84 H84        29.8547   24.2718    6.3414 H         1 UNK         0.0748 
     85 H85        30.0499   22.7637    5.4895 H         1 UNK         0.0748 
     86 H86        28.3741   26.0897    5.7239 H         1 UNK         0.0940 
     87 H87        26.6939   25.7357    5.4649 H         1 UNK         0.0940 
     88 H88        28.7364   26.4856    3.3170 H         1 UNK         0.0703 
     89 H89        27.4322   25.7256    1.7371 H         1 UNK         0.3081 
     90 H90        25.5087   23.9866    1.2042 H         1 UNK         0.0719 
     91 H91        23.0370   25.7920    1.3924 H         1 UNK         0.0809 
     92 H92        23.1969   24.3904    0.3349 H         1 UNK         0.0809 
     93 H93        23.2082   24.1843    2.0789 H         1 UNK         0.0809 
     94 H94        26.0986   25.1850   -0.5520 H         1 UNK         0.2990 
     95 H95        25.1637   28.1385   -1.9821 H         1 UNK         0.0690 
     96 H96        27.4443   29.1644   -1.9314 H         1 UNK         0.0788 
     97 H97        27.8338   28.2445   -0.4777 H         1 UNK         0.0788 
     98 H98        26.5837   29.4760   -0.4348 H         1 UNK         0.0788 
     99 H99        27.5859   26.5866   -2.3019 H         1 UNK         0.2993 
    100 H100       26.1509   23.7956   -3.8270 H         1 UNK         0.0949 
    101 H101       26.0267   25.3442   -5.7928 H         1 UNK         0.0767 
    102 H102       27.5862   26.0326   -5.3618 H         1 UNK         0.0767 
    103 H103       27.4663   24.3432   -5.8580 H         1 UNK         0.0767 
    104 H104       28.8495   24.5294   -3.7929 H         1 UNK         0.3013 
    105 H105       26.0044   28.1015    2.4672 H         1 UNK         0.3121 
    106 H106       25.9834   30.2202    4.4365 H         1 UNK         0.0774 
    107 H107       24.7002   30.1118    1.6614 H         1 UNK         0.0815 
    108 H108       24.3203   31.2363    2.9523 H         1 UNK         0.0815 
    109 H109       23.9543   29.5288    3.1485 H         1 UNK         0.0815 
    110 H110       28.3024   30.5784    4.3756 H         1 UNK         0.2987 
    111 H111       30.0724   31.8925    4.0865 H         1 UNK         0.0949 
    112 H112       28.2297   33.7962    2.5476 H         1 UNK         0.0806 
    113 H113       28.4101   33.7500    4.3011 H         1 UNK         0.0806 
    114 H114       29.7692   34.2047    3.2884 H         1 UNK         0.0806 
    115 H115       29.9677   29.7481    2.4023 H         1 UNK         0.3010 
    116 H116       30.7419   30.3184   -0.2968 H         1 UNK         0.0829 
    117 H117       31.5611   27.9480   -0.2555 H         1 UNK         0.0813 
    118 H118       31.3455   27.8924    1.4862 H         1 UNK         0.0813 
    119 H119       29.9511   28.0699    0.4308 H         1 UNK         0.0813 
    120 H120       32.4837   30.3602    2.7473 H         1 UNK         0.3038 
    121 H121       34.6592   31.8484    1.8400 H         1 UNK         0.0769 
    122 H122       35.3294   28.9277    2.5951 H         1 UNK         0.0811 
    123 H123       36.5003   30.2083    2.3355 H         1 UNK         0.0811 
    124 H124       35.5433   29.6218    0.9928 H         1 UNK         0.0811 
    125 H125       36.2204   31.9664    3.8792 H         1 UNK         0.3204 
    126 H126       34.5684   32.5401    6.2031 H         1 UNK         0.0748 
    127 H127       36.6828   33.4991    7.0917 H         1 UNK         0.0771 
    128 H128       37.5800   32.8450    5.7279 H         1 UNK         0.0771 
    129 H129       36.3583   34.0913    5.4726 H         1 UNK         0.0771 
    130 H130       34.0521   30.0429    6.0881 H         1 UNK         0.2980 
    131 H131       35.9464   28.2971    7.4113 H         1 UNK         0.0545 
    132 H132       33.8383   29.9233   10.4260 H         1 UNK         0.3459 
    133 H133       33.8826   30.6536    8.8403 H         1 UNK         0.3459 
    134 H134       34.1933   26.5680    7.2687 H         1 UNK         0.0616 
    135 H135       33.0033   27.7574    6.8119 H         1 UNK         0.0616 
    136 H136       32.3345   28.2003    4.6840 H         1 UNK         0.0634 
    137 H137       33.2207   28.0579    3.1946 H         1 UNK         0.0634 
@<TRIPOS>BOND
     1    1    2 1    
     2    1   72 1    
     3    1   73 1    
     4    1   74 1    
     5    2    3 2    
     6    2    4 am   BACKBONE|DICT|INTERRES
     7    4    5 1    
     8    4   75 1    
     9    5    6 1    
    10    5   35 1    
    11    5   76 1    
    12    6    7 1    
    13    6   77 1    
    14    6   78 1    
    15    7    8 1    
    16    8    9 1    
    17    8   79 1    
    18    8   80 1    
    19    9   10 ar   
    20    9   14 ar   
    21   10   11 ar   
    22   10   81 1    
    23   11   12 ar   
    24   11   71 1    
    25   12   13 ar   
    26   12   82 1    
    27   13   14 ar   
    28   13   15 1    
    29   14   83 1    
    30   15   16 1    
    31   15   84 1    
    32   15   85 1    
    33   16   17 1    
    34   17   18 1    
    35   17   86 1    
    36   17   87 1    
    37   18   19 1    
    38   18   37 1    
    39   18   88 1    
    40   19   20 am   BACKBONE|DICT|INTERRES
    41   19   89 1    
    42   20   21 2    
    43   20   22 1    
    44   22   23 1    
    45   22   24 1    
    46   22   90 1    
    47   23   91 1    
    48   23   92 1    
    49   23   93 1    
    50   24   25 am   BACKBONE|DICT|INTERRES
    51   24   94 1    
    52   25   26 2    
    53   25   27 1    
    54   27   28 1    
    55   27   29 1    
    56   27   95 1    
    57   28   96 1    
    58   28   97 1    
    59   28   98 1    
    60   29   30 am   BACKBONE|DICT|INTERRES
    61   29   99 1    
    62   30   31 2    
    63   30   32 1    
    64   32   33 1    
    65   32   34 1    
    66   32  100 1    
    67   33  101 1    
    68   33  102 1    
    69   33  103 1    
    70   34   35 am   BACKBONE|DICT|INTERRES
    71   34  104 1    
    72   35   36 2    
    73   37   38 2    
    74   37   39 am   BACKBONE|DICT|INTERRES
    75   39   40 1    
    76   39  105 1    
    77   40   41 1    
    78   40   42 1    
    79   40  106 1    
    80   41  107 1    
    81   41  108 1    
    82   41  109 1    
    83   42   43 2    
    84   42   44 am   BACKBONE|DICT|INTERRES
    85   44   45 1    
    86   44  110 1    
    87   45   46 1    
    88   45   47 1    
    89   45  111 1    
    90   46  112 1    
    91   46  113 1    
    92   46  114 1    
    93   47   48 2    
    94   47   49 am   BACKBONE|DICT|INTERRES
    95   49   50 1    
    96   49  115 1    
    97   50   51 1    
    98   50   52 1    
    99   50  116 1    
   100   51  117 1    
   101   51  118 1    
   102   51  119 1    
   103   52   53 2    
   104   52   54 am   BACKBONE|DICT|INTERRES
   105   54   55 1    
   106   54  120 1    
   107   55   56 1    
   108   55   57 1    
   109   55  121 1    
   110   56  122 1    
   111   56  123 1    
   112   56  124 1    
   113   57   58 2    
   114   57   59 am   BACKBONE|DICT|INTERRES
   115   59   60 1    
   116   59  125 1    
   117   60   61 1    
   118   60   62 1    
   119   60  126 1    
   120   61  127 1    
   121   61  128 1    
   122   61  129 1    
   123   62   63 2    
   124   62   64 am   BACKBONE|DICT|INTERRES
   125   64   65 1    
   126   64  130 1    
   127   65   66 1    
   128   65   69 1    
   129   65  131 1    
   130   66   67 am   BACKBONE|DICT|INTERRES
   131   66   68 2    
   132   67  132 1    
   133   67  133 1    
   134   69   70 1    
   135   69  134 1    
   136   69  135 1    
   137   70   71 1    
   138   71  136 1    
   139   71  137 1    
@<TRIPOS>SUBSTRUCTURE
     1 UNK         1 GROUP             0       ****    0 ROOT    
