@<TRIPOS>MOLECULE
3R136
137   139    1
SMALL
USER_CHARGES


@<TRIPOS>ATOM
      1 CA         29.7733   16.9878   -0.1641 C.3       0 UNK        -0.1979 
      2 C          29.1527   18.3740   -0.2497 C.2       0 UNK         0.4864 
      3 O          28.0181   18.5115   -0.7116 O.2       0 UNK        -0.5359 
      4 N          29.8769   19.4064    0.2036 N.am      1 UNK        -0.4318 
      5 CA         29.4576   20.8138    0.2045 C.3       1 UNK         0.0824 
      6 C6         30.6921   21.7530    0.1928 C.3       12 UNK        -0.0944 
      7 S7         30.3028   23.4443   -0.3754 S.3       12 UNK        -0.2672 
      8 C8         31.0792   24.4210    0.9581 C.3       12 UNK         0.0333 
      9 C9         31.0190   25.9396    0.7846 C.ar      12 UNK        -0.0807 
     10 C10        31.1891   26.7430    1.9165 C.ar      12 UNK        -0.0894 
     11 C11        31.1566   28.1379    1.8229 C.ar      12 UNK        -0.0804 
     12 C12        30.9860   28.7332    0.5709 C.ar      12 UNK        -0.0824 
     13 C13        30.8139   27.9483   -0.5731 C.ar      12 UNK        -0.0762 
     14 C14        30.8337   26.5549   -0.4612 C.ar      12 UNK        -0.0782 
     15 C15        30.6236   28.6023   -1.9354 C.3       12 UNK         0.0230 
     16 S16        28.8619   28.7654   -2.3774 S.3       12 UNK        -0.2608 
     17 C17        28.2938   30.0111   -1.1678 C.3       12 UNK        -0.0989 
     18 CA         27.2867   29.4689   -0.1160 C.3       5 UNK         0.0716 
     19 N          27.6496   28.1455    0.4087 N.am      5 UNK        -0.4135 
     20 C          26.7961   27.3189    1.0256 C.2       4 UNK         0.5031 
     21 O          25.6384   27.6220    1.3252 O.2       4 UNK        -0.5229 
     22 CA         27.3293   25.9205    1.3785 C.3       4 UNK         0.0329 
     23 CB         27.8101   25.8712    2.8358 C.3       4 UNK        -0.2001 
     24 N          26.3118   24.8887    1.1856 N.am      4 UNK        -0.4303 
     25 C          25.8026   24.5167    0.0051 C.2       3 UNK         0.5044 
     26 O          26.1758   24.9727   -1.0774 O.2       3 UNK        -0.5152 
     27 CA         24.7249   23.4171    0.0532 C.3       3 UNK         0.0319 
     28 CB         24.1127   23.1210   -1.3289 C.3       3 UNK        -0.2001 
     29 N          25.2859   22.1804    0.5973 N.am      3 UNK        -0.4354 
     30 C          25.4238   21.8963    1.9002 C.2       2 UNK         0.4964 
     31 O          25.0170   22.6246    2.8061 O.2       2 UNK        -0.5047 
     32 CA         26.1892   20.6081    2.2425 C.3       2 UNK         0.0288 
     33 CB         25.2561   19.3873    2.1988 C.3       2 UNK        -0.2113 
     34 N          27.3188   20.3953    1.3348 N.am      2 UNK        -0.4145 
     35 C          28.4550   21.1062    1.3474 C.2       1 UNK         0.5006 
     36 O          28.7186   21.9403    2.2159 O.2       1 UNK        -0.5103 
     37 C          27.0826   30.5238    0.9916 C.2       5 UNK         0.5055 
     38 O          26.3956   31.5159    0.7456 O.2       5 UNK        -0.5220 
     39 N          27.7135   30.3151    2.1609 N.am      6 UNK        -0.4450 
     40 CA         27.7706   31.2301    3.3117 C.3       6 UNK         0.0367 
     41 CB         26.3753   31.4127    3.9458 C.3       6 UNK        -0.1929 
     42 C          28.4664   32.5690    2.9848 C.2       6 UNK         0.5070 
     43 O          28.0965   33.6071    3.5355 O.2       6 UNK        -0.5237 
     44 N          29.4593   32.5217    2.0865 N.am      7 UNK        -0.4739 
     45 CA         30.1690   33.6851    1.5519 C.3       7 UNK         0.0276 
     46 CB         29.3997   34.2443    0.3374 C.3       7 UNK        -0.1927 
     47 C          31.6326   33.3390    1.2297 C.2       7 UNK         0.5013 
     48 O          32.1481   33.7515    0.1894 O.2       7 UNK        -0.5193 
     49 N          32.2798   32.5820    2.1227 N.am      8 UNK        -0.4253 
     50 CA         33.6955   32.2243    2.0645 C.3       8 UNK         0.0242 
     51 CB         33.9189   31.0294    1.1178 C.3       8 UNK        -0.2000 
     52 C          34.1664   31.9026    3.4859 C.2       8 UNK         0.4948 
     53 O          33.3383   31.5660    4.3372 O.2       8 UNK        -0.5275 
     54 N          35.4857   31.9827    3.7096 N.am      9 UNK        -0.4246 
     55 CA         36.1467   31.8158    5.0124 C.3       9 UNK         0.0261 
     56 CB         37.6604   32.0268    4.8461 C.3       9 UNK        -0.1959 
     57 C          35.8682   30.4775    5.7208 C.2       9 UNK         0.5033 
     58 O          35.8481   30.4431    6.9520 O.2       9 UNK        -0.5390 
     59 N          35.6087   29.4166    4.9428 N.am      10 UNK        -0.4215 
     60 CA         35.1995   28.0921    5.4241 C.3       10 UNK         0.0240 
     61 CB         35.1194   27.1262    4.2296 C.3       10 UNK        -0.1982 
     62 C          33.8702   28.0871    6.2064 C.2       10 UNK         0.4970 
     63 O          33.6563   27.1800    7.0115 O.2       10 UNK        -0.4916 
     64 N          33.0176   29.0905    5.9655 N.am      11 UNK        -0.4279 
     65 CA         31.7464   29.3143    6.6643 C.3       11 UNK         0.1003 
     66 C          31.8865   30.2591    7.8944 C.2       11 UNK         0.5709 
     67 N          33.0720   30.7532    8.2377 N.am      11 UNK        -0.7358 
     68 O          30.8982   30.5364    8.5701 O.2       11 UNK        -0.4999 
     69 C69        30.6503   29.8030    5.6793 C.3       12 UNK        -0.0954 
     70 S70        30.2295   28.5508    4.4205 S.3       12 UNK        -0.2268 
     71 C71        31.3511   29.0047    3.0605 C.3       12 UNK         0.0203 
     72 H72        29.8409   16.5459   -1.1578 H         1 UNK         0.0888 
     73 H73        30.7753   17.0151    0.2637 H         1 UNK         0.0888 
     74 H74        29.1565   16.3386    0.4568 H         1 UNK         0.0888 
     75 H75        30.7870   19.2259    0.6037 H         1 UNK         0.3017 
     76 H76        28.9160   20.9889   -0.7282 H         1 UNK         0.0873 
     77 H77        31.1747   21.7743    1.1719 H         1 UNK         0.0745 
     78 H78        31.4441   21.3652   -0.4964 H         1 UNK         0.0745 
     79 H79        30.5985   24.1456    1.8986 H         1 UNK         0.0705 
     80 H80        32.1267   24.1289    1.0431 H         1 UNK         0.0705 
     81 H81        31.3456   26.2802    2.8817 H         1 UNK         0.1334 
     82 H82        31.0010   29.8103    0.4841 H         1 UNK         0.1417 
     83 H83        30.7139   25.9576   -1.3543 H         1 UNK         0.1562 
     84 H84        31.1225   28.0057   -2.7007 H         1 UNK         0.0748 
     85 H85        31.1010   29.5833   -1.9620 H         1 UNK         0.0748 
     86 H86        27.8251   30.8207   -1.7311 H         1 UNK         0.0940 
     87 H87        29.1602   30.4698   -0.6916 H         1 UNK         0.0940 
     88 H88        26.3247   29.3540   -0.6210 H         1 UNK         0.0703 
     89 H89        28.5782   27.8174    0.1780 H         1 UNK         0.3081 
     90 H90        28.1689   25.6853    0.7220 H         1 UNK         0.0719 
     91 H91        26.9957   26.0557    3.5375 H         1 UNK         0.0809 
     92 H92        28.2498   24.9022    3.0747 H         1 UNK         0.0809 
     93 H93        28.5729   26.6256    3.0191 H         1 UNK         0.0809 
     94 H94        25.9425   24.4466    2.0185 H         1 UNK         0.2990 
     95 H95        23.9222   23.7706    0.7042 H         1 UNK         0.0690 
     96 H96        23.3241   22.3714   -1.2603 H         1 UNK         0.0788 
     97 H97        24.8605   22.7576   -2.0350 H         1 UNK         0.0788 
     98 H98        23.6674   24.0195   -1.7583 H         1 UNK         0.0788 
     99 H99        25.6799   21.5368   -0.0731 H         1 UNK         0.2993 
    100 H100       26.5759   20.7099    3.2592 H         1 UNK         0.0949 
    101 H101       25.7785   18.4797    2.5020 H         1 UNK         0.0767 
    102 H102       24.4124   19.5173    2.8782 H         1 UNK         0.0767 
    103 H103       24.8496   19.2220    1.2001 H         1 UNK         0.0767 
    104 H104       27.2200   19.6870    0.6119 H         1 UNK         0.3013 
    105 H105       28.2351   29.4557    2.2620 H         1 UNK         0.3121 
    106 H106       28.3972   30.7483    4.0602 H         1 UNK         0.0774 
    107 H107       26.4418   31.9656    4.8835 H         1 UNK         0.0815 
    108 H108       25.7005   31.9656    3.2918 H         1 UNK         0.0815 
    109 H109       25.9132   30.4514    4.1701 H         1 UNK         0.0815 
    110 H110       29.7103   31.6279    1.6923 H         1 UNK         0.2987 
    111 H111       30.2099   34.4647    2.3160 H         1 UNK         0.0949 
    112 H112       29.3456   33.5161   -0.4726 H         1 UNK         0.0806 
    113 H113       28.3799   34.5205    0.6061 H         1 UNK         0.0806 
    114 H114       29.8814   35.1401   -0.0566 H         1 UNK         0.0806 
    115 H115       31.8272   32.3288    2.9930 H         1 UNK         0.3010 
    116 H116       34.2613   33.0863    1.7036 H         1 UNK         0.0829 
    117 H117       33.5320   31.2317    0.1190 H         1 UNK         0.0813 
    118 H118       34.9816   30.8100    1.0097 H         1 UNK         0.0813 
    119 H119       33.4395   30.1231    1.4840 H         1 UNK         0.0813 
    120 H120       36.0849   32.2481    2.9405 H         1 UNK         0.3038 
    121 H121       35.7645   32.6032    5.6655 H         1 UNK         0.0769 
    122 H122       38.0987   31.2942    4.1672 H         1 UNK         0.0811 
    123 H123       38.1756   31.9326    5.8033 H         1 UNK         0.0811 
    124 H124       37.8838   33.0212    4.4590 H         1 UNK         0.0811 
    125 H125       35.6534   29.5437    3.9425 H         1 UNK         0.3204 
    126 H126       35.9755   27.7351    6.1044 H         1 UNK         0.0748 
    127 H127       36.0803   27.0417    3.7216 H         1 UNK         0.0771 
    128 H128       34.8399   26.1234    4.5562 H         1 UNK         0.0771 
    129 H129       34.3782   27.4467    3.4964 H         1 UNK         0.0771 
    130 H130       33.2855   29.8296    5.3240 H         1 UNK         0.2980 
    131 H131       31.4032   28.3640    7.0771 H         1 UNK         0.0545 
    132 H132       33.1349   31.3555    9.0427 H         1 UNK         0.3459 
    133 H133       33.9088   30.5280    7.7134 H         1 UNK         0.3459 
    134 H134       30.9450   30.7344    5.1938 H         1 UNK         0.0616 
    135 H135       29.7269   30.0244    6.2171 H         1 UNK         0.0616 
    136 H136       31.1949   30.0563    2.8223 H         1 UNK         0.0634 
    137 H137       32.3849   28.9083    3.3878 H         1 UNK         0.0634 
@<TRIPOS>BOND
     1    1    2 1    
     2    1   72 1    
     3    1   73 1    
     4    1   74 1    
     5    2    3 2    
     6    2    4 am   BACKBONE|DICT|INTERRES
     7    4    5 1    
     8    4   75 1    
     9    5    6 1    
    10    5   35 1    
    11    5   76 1    
    12    6    7 1    
    13    6   77 1    
    14    6   78 1    
    15    7    8 1    
    16    8    9 1    
    17    8   79 1    
    18    8   80 1    
    19    9   10 ar   
    20    9   14 ar   
    21   10   11 ar   
    22   10   81 1    
    23   11   12 ar   
    24   11   71 1    
    25   12   13 ar   
    26   12   82 1    
    27   13   14 ar   
    28   13   15 1    
    29   14   83 1    
    30   15   16 1    
    31   15   84 1    
    32   15   85 1    
    33   16   17 1    
    34   17   18 1    
    35   17   86 1    
    36   17   87 1    
    37   18   19 1    
    38   18   37 1    
    39   18   88 1    
    40   19   20 am   BACKBONE|DICT|INTERRES
    41   19   89 1    
    42   20   21 2    
    43   20   22 1    
    44   22   23 1    
    45   22   24 1    
    46   22   90 1    
    47   23   91 1    
    48   23   92 1    
    49   23   93 1    
    50   24   25 am   BACKBONE|DICT|INTERRES
    51   24   94 1    
    52   25   26 2    
    53   25   27 1    
    54   27   28 1    
    55   27   29 1    
    56   27   95 1    
    57   28   96 1    
    58   28   97 1    
    59   28   98 1    
    60   29   30 am   BACKBONE|DICT|INTERRES
    61   29   99 1    
    62   30   31 2    
    63   30   32 1    
    64   32   33 1    
    65   32   34 1    
    66   32  100 1    
    67   33  101 1    
    68   33  102 1    
    69   33  103 1    
    70   34   35 am   BACKBONE|DICT|INTERRES
    71   34  104 1    
    72   35   36 2    
    73   37   38 2    
    74   37   39 am   BACKBONE|DICT|INTERRES
    75   39   40 1    
    76   39  105 1    
    77   40   41 1    
    78   40   42 1    
    79   40  106 1    
    80   41  107 1    
    81   41  108 1    
    82   41  109 1    
    83   42   43 2    
    84   42   44 am   BACKBONE|DICT|INTERRES
    85   44   45 1    
    86   44  110 1    
    87   45   46 1    
    88   45   47 1    
    89   45  111 1    
    90   46  112 1    
    91   46  113 1    
    92   46  114 1    
    93   47   48 2    
    94   47   49 am   BACKBONE|DICT|INTERRES
    95   49   50 1    
    96   49  115 1    
    97   50   51 1    
    98   50   52 1    
    99   50  116 1    
   100   51  117 1    
   101   51  118 1    
   102   51  119 1    
   103   52   53 2    
   104   52   54 am   BACKBONE|DICT|INTERRES
   105   54   55 1    
   106   54  120 1    
   107   55   56 1    
   108   55   57 1    
   109   55  121 1    
   110   56  122 1    
   111   56  123 1    
   112   56  124 1    
   113   57   58 2    
   114   57   59 am   BACKBONE|DICT|INTERRES
   115   59   60 1    
   116   59  125 1    
   117   60   61 1    
   118   60   62 1    
   119   60  126 1    
   120   61  127 1    
   121   61  128 1    
   122   61  129 1    
   123   62   63 2    
   124   62   64 am   BACKBONE|DICT|INTERRES
   125   64   65 1    
   126   64  130 1    
   127   65   66 1    
   128   65   69 1    
   129   65  131 1    
   130   66   67 am   BACKBONE|DICT|INTERRES
   131   66   68 2    
   132   67  132 1    
   133   67  133 1    
   134   69   70 1    
   135   69  134 1    
   136   69  135 1    
   137   70   71 1    
   138   71  136 1    
   139   71  137 1    
@<TRIPOS>SUBSTRUCTURE
     1 UNK         1 GROUP             0       ****    0 ROOT    
