@<TRIPOS>MOLECULE
3R136
137   139    1
SMALL
USER_CHARGES


@<TRIPOS>ATOM
      1 CA         33.1847   27.1225   -1.0285 C.3       0 UNK        -0.1979 
      2 C          32.1868   26.0507   -1.4390 C.2       0 UNK         0.4864 
      3 O          32.0092   25.8118   -2.6343 O.2       0 UNK        -0.5359 
      4 N          31.5442   25.4096   -0.4528 N.am      1 UNK        -0.4318 
      5 CA         30.5638   24.3233   -0.6048 C.3       1 UNK         0.0824 
      6 C6         31.1390   23.0233   -1.2437 C.3       12 UNK        -0.0944 
      7 S7         32.7062   22.4319   -0.5227 S.3       12 UNK        -0.2672 
      8 C8         32.1273   21.3225    0.8069 C.3       12 UNK         0.0333 
      9 C9         31.7396   22.0560    2.0883 C.ar      12 UNK        -0.0807 
     10 C10        32.5220   23.1107    2.5714 C.ar      12 UNK        -0.0894 
     11 C11        32.1908   23.7591    3.7620 C.ar      12 UNK        -0.0804 
     12 C12        31.0820   23.3282    4.4946 C.ar      12 UNK        -0.0824 
     13 C13        30.2987   22.2632    4.0371 C.ar      12 UNK        -0.0762 
     14 C14        30.6266   21.6386    2.8280 C.ar      12 UNK        -0.0782 
     15 C15        29.1365   21.7480    4.8788 C.3       12 UNK         0.0230 
     16 S16        27.5163   22.3593    4.3122 S.3       12 UNK        -0.2608 
     17 C17        27.5889   24.1243    4.7697 C.3       12 UNK        -0.0989 
     18 CA         27.2689   25.0277    3.5498 C.3       5 UNK         0.0716 
     19 N          25.8679   24.9556    3.1139 N.am      5 UNK        -0.4135 
     20 C          24.7810   25.3384    3.8041 C.2       4 UNK         0.5031 
     21 O          24.8154   25.7716    4.9572 O.2       4 UNK        -0.5229 
     22 CA         23.4143   25.1850    3.1003 C.3       4 UNK         0.0329 
     23 CB         22.3411   26.1483    3.6540 C.3       4 UNK        -0.2001 
     24 N          23.4886   25.2593    1.6351 N.am      4 UNK        -0.4303 
     25 C          23.8490   26.3147    0.8903 C.2       3 UNK         0.5044 
     26 O          24.1111   27.4340    1.3341 O.2       3 UNK        -0.5152 
     27 CA         23.9423   26.0541   -0.6245 C.3       3 UNK         0.0319 
     28 CB         22.7943   26.7632   -1.3616 C.3       3 UNK        -0.2001 
     29 N          25.2205   26.4495   -1.2302 N.am      3 UNK        -0.4354 
     30 C          26.4493   26.1881   -0.7598 C.2       2 UNK         0.4964 
     31 O          26.6793   25.6475    0.3266 O.2       2 UNK        -0.5047 
     32 CA         27.6193   26.5924   -1.6742 C.3       2 UNK         0.0288 
     33 CB         27.7337   28.1196   -1.8230 C.3       2 UNK        -0.2113 
     34 N          28.8835   26.0548   -1.1651 N.am      2 UNK        -0.4145 
     35 C          29.2689   24.7791   -1.3221 C.2       1 UNK         0.5006 
     36 O          28.6348   23.9701   -2.0057 O.2       1 UNK        -0.5103 
     37 C          27.6916   26.4957    3.7434 C.2       5 UNK         0.5055 
     38 O          27.9874   26.9244    4.8615 O.2       5 UNK        -0.5220 
     39 N          27.6793   27.2364    2.6324 N.am      6 UNK        -0.4450 
     40 CA         28.0898   28.6335    2.5409 C.3       6 UNK         0.0367 
     41 CB         26.9006   29.4522    2.0078 C.3       6 UNK        -0.1929 
     42 C          29.3137   28.7673    1.6227 C.2       6 UNK         0.5070 
     43 O          29.6825   27.8184    0.9237 O.2       6 UNK        -0.5237 
     44 N          29.9008   29.9657    1.6207 N.am      7 UNK        -0.4739 
     45 CA         31.0484   30.3770    0.8199 C.3       7 UNK         0.0276 
     46 CB         32.3288   29.7054    1.3532 C.3       7 UNK        -0.1927 
     47 C          31.1788   31.9012    0.9247 C.2       7 UNK         0.5013 
     48 O          30.5424   32.5150    1.7861 O.2       7 UNK        -0.5193 
     49 N          32.0649   32.4808    0.1061 N.am      8 UNK        -0.4253 
     50 CA         32.5532   33.8565    0.2516 C.3       8 UNK         0.0242 
     51 CB         32.8728   34.4275   -1.1433 C.3       8 UNK        -0.2000 
     52 C          33.7706   33.8761    1.1997 C.2       8 UNK         0.4948 
     53 O          34.8442   34.3508    0.8243 O.2       8 UNK        -0.5275 
     54 N          33.5911   33.3044    2.3951 N.am      9 UNK        -0.4246 
     55 CA         34.6028   33.0292    3.4110 C.3       9 UNK         0.0261 
     56 CB         35.5525   31.9109    2.9224 C.3       9 UNK        -0.1959 
     57 C          33.8746   32.6315    4.7058 C.2       9 UNK         0.5033 
     58 O          32.6448   32.7101    4.7643 O.2       9 UNK        -0.5390 
     59 N          34.6359   32.1891    5.7159 N.am      10 UNK        -0.4215 
     60 CA         34.1188   31.6884    6.9966 C.3       10 UNK         0.0240 
     61 CB         35.2792   31.5941    8.0020 C.3       10 UNK        -0.1982 
     62 C          33.3799   30.3363    6.8993 C.2       10 UNK         0.4970 
     63 O          32.6422   29.9947    7.8246 O.2       10 UNK        -0.4916 
     64 N          33.6012   29.5906    5.8077 N.am      11 UNK        -0.4279 
     65 CA         32.9276   28.3270    5.4750 C.3       11 UNK         0.1003 
     66 C          31.3849   28.4971    5.3324 C.2       11 UNK         0.5709 
     67 N          30.6121   27.5579    5.8616 N.am      11 UNK        -0.7358 
     68 O          30.8973   29.4411    4.7160 O.2       11 UNK        -0.4999 
     69 C69        33.6234   27.6668    4.2421 C.3       12 UNK        -0.0954 
     70 S70        32.6713   26.4207    3.3018 S.3       12 UNK        -0.2268 
     71 C71        33.0404   24.9194    4.2521 C.3       12 UNK         0.0203 
     72 H72        32.7634   28.1120   -1.2027 H         1 UNK         0.0888 
     73 H73        33.4554   27.0393    0.0239 H         1 UNK         0.0888 
     74 H74        34.0982   27.0316   -1.6155 H         1 UNK         0.0888 
     75 H75        31.7210   25.6878    0.5031 H         1 UNK         0.3017 
     76 H76        30.2539   24.0722    0.4108 H         1 UNK         0.0873 
     77 H77        30.4079   22.2151   -1.1845 H         1 UNK         0.0745 
     78 H78        31.3185   23.1794   -2.3090 H         1 UNK         0.0745 
     79 H79        32.9334   20.6283    1.0472 H         1 UNK         0.0705 
     80 H80        31.3005   20.7140    0.4377 H         1 UNK         0.0705 
     81 H81        33.3928   23.4360    2.0190 H         1 UNK         0.1334 
     82 H82        30.8394   23.8137    5.4297 H         1 UNK         0.1417 
     83 H83        30.0267   20.8091    2.4782 H         1 UNK         0.1562 
     84 H84        29.2745   22.0126    5.9285 H         1 UNK         0.0748 
     85 H85        29.1256   20.6575    4.8463 H         1 UNK         0.0748 
     86 H86        28.5792   24.3524    5.1626 H         1 UNK         0.0940 
     87 H87        26.9001   24.3095    5.5948 H         1 UNK         0.0940 
     88 H88        27.8679   24.6633    2.7126 H         1 UNK         0.0703 
     89 H89        25.7428   24.6861    2.1469 H         1 UNK         0.3081 
     90 H90        23.0833   24.1707    3.3282 H         1 UNK         0.0719 
     91 H91        22.6380   27.1919    3.5460 H         1 UNK         0.0809 
     92 H92        21.3866   26.0157    3.1447 H         1 UNK         0.0809 
     93 H93        22.1664   25.9710    4.7159 H         1 UNK         0.0809 
     94 H94        23.2916   24.3918    1.1542 H         1 UNK         0.2990 
     95 H95        23.8395   24.9810   -0.7976 H         1 UNK         0.0690 
     96 H96        22.7803   26.5066   -2.4211 H         1 UNK         0.0788 
     97 H97        22.8741   27.8480   -1.2784 H         1 UNK         0.0788 
     98 H98        21.8265   26.4756   -0.9480 H         1 UNK         0.0788 
     99 H99        25.1503   26.9240   -2.1185 H         1 UNK         0.2993 
    100 H100       27.4333   26.1677   -2.6633 H         1 UNK         0.0949 
    101 H101       27.8513   28.6170   -0.8628 H         1 UNK         0.0767 
    102 H102       28.5879   28.3917   -2.4435 H         1 UNK         0.0767 
    103 H103       26.8462   28.5394   -2.2976 H         1 UNK         0.0767 
    104 H104       29.3946   26.6488   -0.5148 H         1 UNK         0.3013 
    105 H105       27.4473   26.7827    1.7530 H         1 UNK         0.3121 
    106 H106       28.3710   29.0182    3.5235 H         1 UNK         0.0774 
    107 H107       27.1552   30.5070    1.8993 H         1 UNK         0.0815 
    108 H108       26.5616   29.0922    1.0364 H         1 UNK         0.0815 
    109 H109       26.0515   29.3944    2.6893 H         1 UNK         0.0815 
    110 H110       29.5452   30.7053    2.2160 H         1 UNK         0.2987 
    111 H111       30.8763   30.0997   -0.2222 H         1 UNK         0.0949 
    112 H112       32.5371   30.0179    2.3772 H         1 UNK         0.0806 
    113 H113       32.2402   28.6209    1.3522 H         1 UNK         0.0806 
    114 H114       33.1997   29.9588    0.7482 H         1 UNK         0.0806 
    115 H115       32.5651   31.9015   -0.5534 H         1 UNK         0.3010 
    116 H116       31.7791   34.4837    0.6995 H         1 UNK         0.0829 
    117 H117       31.9920   34.4192   -1.7856 H         1 UNK         0.0813 
    118 H118       33.2109   35.4622   -1.0733 H         1 UNK         0.0813 
    119 H119       33.6586   33.8602   -1.6437 H         1 UNK         0.0813 
    120 H120       32.6573   33.0091    2.6666 H         1 UNK         0.3038 
    121 H121       35.1694   33.9424    3.6033 H         1 UNK         0.0769 
    122 H122       35.0189   30.9746    2.7548 H         1 UNK         0.0811 
    123 H123       36.3489   31.7135    3.6402 H         1 UNK         0.0811 
    124 H124       36.0425   32.1812    1.9871 H         1 UNK         0.0811 
    125 H125       35.6392   32.1745    5.5986 H         1 UNK         0.3204 
    126 H126       33.3999   32.4181    7.3758 H         1 UNK         0.0748 
    127 H127       34.9247   31.2602    8.9784 H         1 UNK         0.0771 
    128 H128       36.0423   30.8870    7.6739 H         1 UNK         0.0771 
    129 H129       35.7577   32.5626    8.1491 H         1 UNK         0.0771 
    130 H130       34.2161   29.9617    5.1018 H         1 UNK         0.2980 
    131 H131       33.0947   27.6617    6.3245 H         1 UNK         0.0545 
    132 H132       29.6118   27.5848    5.6914 H         1 UNK         0.3459 
    133 H133       31.0081   26.7831    6.3665 H         1 UNK         0.3459 
    134 H134       34.5720   27.2246    4.5500 H         1 UNK         0.0616 
    135 H135       33.8909   28.4362    3.5173 H         1 UNK         0.0616 
    136 H136       34.0991   24.6756    4.1519 H         1 UNK         0.0634 
    137 H137       32.8601   25.1064    5.3117 H         1 UNK         0.0634 
@<TRIPOS>BOND
     1    1    2 1    
     2    1   72 1    
     3    1   73 1    
     4    1   74 1    
     5    2    3 2    
     6    2    4 am   BACKBONE|DICT|INTERRES
     7    4    5 1    
     8    4   75 1    
     9    5    6 1    
    10    5   35 1    
    11    5   76 1    
    12    6    7 1    
    13    6   77 1    
    14    6   78 1    
    15    7    8 1    
    16    8    9 1    
    17    8   79 1    
    18    8   80 1    
    19    9   10 ar   
    20    9   14 ar   
    21   10   11 ar   
    22   10   81 1    
    23   11   12 ar   
    24   11   71 1    
    25   12   13 ar   
    26   12   82 1    
    27   13   14 ar   
    28   13   15 1    
    29   14   83 1    
    30   15   16 1    
    31   15   84 1    
    32   15   85 1    
    33   16   17 1    
    34   17   18 1    
    35   17   86 1    
    36   17   87 1    
    37   18   19 1    
    38   18   37 1    
    39   18   88 1    
    40   19   20 am   BACKBONE|DICT|INTERRES
    41   19   89 1    
    42   20   21 2    
    43   20   22 1    
    44   22   23 1    
    45   22   24 1    
    46   22   90 1    
    47   23   91 1    
    48   23   92 1    
    49   23   93 1    
    50   24   25 am   BACKBONE|DICT|INTERRES
    51   24   94 1    
    52   25   26 2    
    53   25   27 1    
    54   27   28 1    
    55   27   29 1    
    56   27   95 1    
    57   28   96 1    
    58   28   97 1    
    59   28   98 1    
    60   29   30 am   BACKBONE|DICT|INTERRES
    61   29   99 1    
    62   30   31 2    
    63   30   32 1    
    64   32   33 1    
    65   32   34 1    
    66   32  100 1    
    67   33  101 1    
    68   33  102 1    
    69   33  103 1    
    70   34   35 am   BACKBONE|DICT|INTERRES
    71   34  104 1    
    72   35   36 2    
    73   37   38 2    
    74   37   39 am   BACKBONE|DICT|INTERRES
    75   39   40 1    
    76   39  105 1    
    77   40   41 1    
    78   40   42 1    
    79   40  106 1    
    80   41  107 1    
    81   41  108 1    
    82   41  109 1    
    83   42   43 2    
    84   42   44 am   BACKBONE|DICT|INTERRES
    85   44   45 1    
    86   44  110 1    
    87   45   46 1    
    88   45   47 1    
    89   45  111 1    
    90   46  112 1    
    91   46  113 1    
    92   46  114 1    
    93   47   48 2    
    94   47   49 am   BACKBONE|DICT|INTERRES
    95   49   50 1    
    96   49  115 1    
    97   50   51 1    
    98   50   52 1    
    99   50  116 1    
   100   51  117 1    
   101   51  118 1    
   102   51  119 1    
   103   52   53 2    
   104   52   54 am   BACKBONE|DICT|INTERRES
   105   54   55 1    
   106   54  120 1    
   107   55   56 1    
   108   55   57 1    
   109   55  121 1    
   110   56  122 1    
   111   56  123 1    
   112   56  124 1    
   113   57   58 2    
   114   57   59 am   BACKBONE|DICT|INTERRES
   115   59   60 1    
   116   59  125 1    
   117   60   61 1    
   118   60   62 1    
   119   60  126 1    
   120   61  127 1    
   121   61  128 1    
   122   61  129 1    
   123   62   63 2    
   124   62   64 am   BACKBONE|DICT|INTERRES
   125   64   65 1    
   126   64  130 1    
   127   65   66 1    
   128   65   69 1    
   129   65  131 1    
   130   66   67 am   BACKBONE|DICT|INTERRES
   131   66   68 2    
   132   67  132 1    
   133   67  133 1    
   134   69   70 1    
   135   69  134 1    
   136   69  135 1    
   137   70   71 1    
   138   71  136 1    
   139   71  137 1    
@<TRIPOS>SUBSTRUCTURE
     1 UNK         1 GROUP             0       ****    0 ROOT    
