@<TRIPOS>MOLECULE
3R136
137   139    1
SMALL
USER_CHARGES


@<TRIPOS>ATOM
      1 CA         26.1879   24.7113    6.5805 C.3       0 UNK        -0.1979 
      2 C          25.9478   23.7667    5.4118 C.2       0 UNK         0.4864 
      3 O          24.7974   23.4592    5.0979 O.2       0 UNK        -0.5359 
      4 N          27.0264   23.3094    4.7623 N.am      1 UNK        -0.4318 
      5 CA         27.0033   22.4198    3.5924 C.3       1 UNK         0.0824 
      6 C6         28.3732   21.7258    3.3810 C.3       12 UNK        -0.0944 
      7 S7         29.7678   22.8988    3.2706 S.3       12 UNK        -0.2672 
      8 C8         30.3529   22.6173    1.5688 C.3       12 UNK         0.0333 
      9 C9         31.3141   23.7056    1.1041 C.ar      12 UNK        -0.0807 
     10 C10        32.4092   24.0821    1.8880 C.ar      12 UNK        -0.0894 
     11 C11        33.2541   25.1179    1.4796 C.ar      12 UNK        -0.0804 
     12 C12        33.0322   25.7456    0.2497 C.ar      12 UNK        -0.0824 
     13 C13        31.9488   25.3695   -0.5523 C.ar      12 UNK        -0.0762 
     14 C14        31.0973   24.3509   -0.1159 C.ar      12 UNK        -0.0782 
     15 C15        31.6683   26.0667   -1.8810 C.3       12 UNK         0.0230 
     16 S16        31.6036   27.8843   -1.7445 S.3       12 UNK        -0.2608 
     17 C17        30.3461   28.1277   -0.4477 C.3       12 UNK        -0.0989 
     18 CA         29.1429   28.9672   -0.9382 C.3       5 UNK         0.0716 
     19 N          28.3055   28.2312   -1.8861 N.am      5 UNK        -0.4135 
     20 C          27.6081   28.8065   -2.8735 C.2       4 UNK         0.5031 
     21 O          27.6866   30.0072   -3.1408 O.2       4 UNK        -0.5229 
     22 CA         26.6214   27.9449   -3.6873 C.3       4 UNK         0.0329 
     23 CB         26.9871   27.9222   -5.1867 C.3       4 UNK        -0.2001 
     24 N          26.3829   26.5930   -3.1618 N.am      4 UNK        -0.4303 
     25 C          27.1922   25.5241   -3.1912 C.2       3 UNK         0.5044 
     26 O          28.3198   25.5180   -3.6857 O.2       3 UNK        -0.5152 
     27 CA         26.6330   24.2643   -2.5001 C.3       3 UNK         0.0319 
     28 CB         27.6267   23.0846   -2.4844 C.3       3 UNK        -0.2001 
     29 N          26.1372   24.5449   -1.1449 N.am      3 UNK        -0.4354 
     30 C          26.8248   25.0856   -0.1260 C.2       2 UNK         0.4964 
     31 O          28.0063   25.4205   -0.1963 O.2       2 UNK        -0.5047 
     32 CA         26.0645   25.3287    1.1908 C.3       2 UNK         0.0288 
     33 CB         24.5247   25.2672    1.0594 C.3       2 UNK        -0.2113 
     34 N          26.5297   24.4478    2.2660 N.am      2 UNK        -0.4145 
     35 C          26.4952   23.1054    2.3019 C.2       1 UNK         0.5006 
     36 O          26.0678   22.4019    1.3845 O.2       1 UNK        -0.5103 
     37 C          28.2933   29.3843    0.2723 C.2       5 UNK         0.5055 
     38 O          27.4093   28.6358    0.6970 O.2       5 UNK        -0.5220 
     39 N          28.6515   30.5219    0.8807 N.am      6 UNK        -0.4450 
     40 CA         28.2178   30.9130    2.2239 C.3       6 UNK         0.0367 
     41 CB         28.2575   32.4476    2.3451 C.3       6 UNK        -0.1929 
     42 C          29.1260   30.2173    3.2529 C.2       6 UNK         0.5070 
     43 O          29.9238   30.8775    3.9211 O.2       6 UNK        -0.5237 
     44 N          29.0407   28.8806    3.3058 N.am      7 UNK        -0.4739 
     45 CA         29.9806   27.9633    3.9681 C.3       7 UNK         0.0276 
     46 CB         29.5239   26.5178    3.7156 C.3       7 UNK        -0.1927 
     47 C          30.2269   28.2024    5.4710 C.2       7 UNK         0.5013 
     48 O          31.2306   27.7261    5.9995 O.2       7 UNK        -0.5193 
     49 N          29.3381   28.9578    6.1285 N.am      8 UNK        -0.4253 
     50 CA         29.5122   29.4502    7.4960 C.3       8 UNK         0.0242 
     51 CB         28.1849   30.0551    7.9820 C.3       8 UNK        -0.2000 
     52 C          30.6573   30.4742    7.6476 C.2       8 UNK         0.4948 
     53 O          31.1621   30.6283    8.7608 O.2       8 UNK        -0.5275 
     54 N          31.0379   31.1570    6.5564 N.am      9 UNK        -0.4246 
     55 CA         32.0865   32.1815    6.5393 C.3       9 UNK         0.0261 
     56 CB         31.4360   33.5751    6.5198 C.3       9 UNK        -0.1959 
     57 C          33.0621   32.0291    5.3617 C.2       9 UNK         0.5033 
     58 O          34.2513   32.3001    5.5392 O.2       9 UNK        -0.5390 
     59 N          32.5685   31.6101    4.1859 N.am      10 UNK        -0.4215 
     60 CA         33.3186   31.5485    2.9233 C.3       10 UNK         0.0240 
     61 CB         32.3672   31.1447    1.7848 C.3       10 UNK        -0.1982 
     62 C          34.5441   30.6192    2.9356 C.2       10 UNK         0.4970 
     63 O          35.4798   30.8537    2.1696 O.2       10 UNK        -0.4916 
     64 N          34.5196   29.5928    3.7926 N.am      11 UNK        -0.4279 
     65 CA         35.6176   28.6319    3.9746 C.3       11 UNK         0.1003 
     66 C          36.8218   29.1885    4.7904 C.2       11 UNK         0.5709 
     67 N          36.7314   30.3644    5.4040 N.am      11 UNK        -0.7358 
     68 O          37.8642   28.5417    4.8610 O.2       11 UNK        -0.4999 
     69 C69        35.1220   27.2808    4.5573 C.3       12 UNK        -0.0954 
     70 S70        33.6430   26.6339    3.7116 S.3       12 UNK        -0.2268 
     71 C71        34.3605   25.5986    2.4034 C.3       12 UNK         0.0203 
     72 H72        25.7857   24.2823    7.4979 H         1 UNK         0.0888 
     73 H73        27.2487   24.9086    6.7352 H         1 UNK         0.0888 
     74 H74        25.6890   25.6635    6.4021 H         1 UNK         0.0888 
     75 H75        27.9506   23.5802    5.0698 H         1 UNK         0.3017 
     76 H76        26.2788   21.6312    3.8084 H         1 UNK         0.0873 
     77 H77        28.3506   21.0782    2.5022 H         1 UNK         0.0745 
     78 H78        28.5725   21.0609    4.2228 H         1 UNK         0.0745 
     79 H79        30.8494   21.6479    1.5119 H         1 UNK         0.0705 
     80 H80        29.4873   22.5698    0.9053 H         1 UNK         0.0705 
     81 H81        32.5771   23.6019    2.8424 H         1 UNK         0.1334 
     82 H82        33.6797   26.5512   -0.0687 H         1 UNK         0.1417 
     83 H83        30.2484   24.0730   -0.7224 H         1 UNK         0.1562 
     84 H84        30.7238   25.7235   -2.3066 H         1 UNK         0.0748 
     85 H85        32.4459   25.7933   -2.5951 H         1 UNK         0.0748 
     86 H86        30.8539   28.6173    0.3854 H         1 UNK         0.0940 
     87 H87        30.0045   27.1677   -0.0571 H         1 UNK         0.0940 
     88 H88        29.5281   29.8719   -1.4140 H         1 UNK         0.0703 
     89 H89        28.1702   27.2486   -1.6876 H         1 UNK         0.3081 
     90 H90        25.6592   28.4526   -3.6033 H         1 UNK         0.0719 
     91 H91        27.9771   27.4995   -5.3598 H         1 UNK         0.0809 
     92 H92        26.2668   27.3428   -5.7640 H         1 UNK         0.0809 
     93 H93        26.9946   28.9316   -5.6000 H         1 UNK         0.0809 
     94 H94        25.4937   26.4751   -2.6955 H         1 UNK         0.2990 
     95 H95        25.7684   23.9528   -3.0882 H         1 UNK         0.0690 
     96 H96        27.9219   22.8088   -3.4974 H         1 UNK         0.0788 
     97 H97        28.5350   23.3278   -1.9368 H         1 UNK         0.0788 
     98 H98        27.1852   22.2016   -2.0221 H         1 UNK         0.0788 
     99 H99        25.1733   24.2966   -0.9700 H         1 UNK         0.2993 
    100 H100       26.3215   26.3435    1.4975 H         1 UNK         0.0949 
    101 H101       24.1663   24.2712    0.7973 H         1 UNK         0.0767 
    102 H102       24.0457   25.5475    1.9978 H         1 UNK         0.0767 
    103 H103       24.1656   25.9635    0.3003 H         1 UNK         0.0767 
    104 H104       26.9380   24.9131    3.0624 H         1 UNK         0.3013 
    105 H105       29.3976   31.0711    0.4782 H         1 UNK         0.3121 
    106 H106       27.1907   30.5850    2.3988 H         1 UNK         0.0774 
    107 H107       29.2592   32.8460    2.1801 H         1 UNK         0.0815 
    108 H108       27.9412   32.7670    3.3390 H         1 UNK         0.0815 
    109 H109       27.5875   32.9185    1.6258 H         1 UNK         0.0815 
    110 H110       28.3553   28.4483    2.6973 H         1 UNK         0.2987 
    111 H111       30.9463   28.0984    3.4767 H         1 UNK         0.0949 
    112 H112       28.5480   26.3200    4.1591 H         1 UNK         0.0806 
    113 H113       29.4659   26.2956    2.6489 H         1 UNK         0.0806 
    114 H114       30.2314   25.8083    4.1477 H         1 UNK         0.0806 
    115 H115       28.5476   29.3113    5.6098 H         1 UNK         0.3010 
    116 H116       29.7537   28.5959    8.1322 H         1 UNK         0.0829 
    117 H117       28.2695   30.4042    9.0123 H         1 UNK         0.0813 
    118 H118       27.8831   30.9084    7.3732 H         1 UNK         0.0813 
    119 H119       27.3798   29.3205    7.9565 H         1 UNK         0.0813 
    120 H120       30.5610   30.9723    5.6774 H         1 UNK         0.3038 
    121 H121       32.6918   32.1054    7.4451 H         1 UNK         0.0769 
    122 H122       30.7981   33.7096    5.6451 H         1 UNK         0.0811 
    123 H123       32.1925   34.3609    6.4988 H         1 UNK         0.0811 
    124 H124       30.8250   33.7379    7.4078 H         1 UNK         0.0811 
    125 H125       31.5725   31.4035    4.1146 H         1 UNK         0.3204 
    126 H126       33.6854   32.5563    2.7184 H         1 UNK         0.0748 
    127 H127       32.8883   31.1183    0.8266 H         1 UNK         0.0771 
    128 H128       31.9434   30.1543    1.9526 H         1 UNK         0.0771 
    129 H129       31.5459   31.8539    1.6853 H         1 UNK         0.0771 
    130 H130       33.7137   29.4673    4.3858 H         1 UNK         0.2980 
    131 H131       36.0163   28.4142    2.9819 H         1 UNK         0.0545 
    132 H132       37.5229   30.7091    5.9234 H         1 UNK         0.3459 
    133 H133       35.8844   30.9174    5.3516 H         1 UNK         0.3459 
    134 H134       34.8653   27.3978    5.6118 H         1 UNK         0.0616 
    135 H135       35.9119   26.5285    4.5171 H         1 UNK         0.0616 
    136 H136       34.8784   24.7478    2.8485 H         1 UNK         0.0634 
    137 H137       35.1053   26.1720    1.8494 H         1 UNK         0.0634 
@<TRIPOS>BOND
     1    1    2 1    
     2    1   72 1    
     3    1   73 1    
     4    1   74 1    
     5    2    3 2    
     6    2    4 am   BACKBONE|DICT|INTERRES
     7    4    5 1    
     8    4   75 1    
     9    5    6 1    
    10    5   35 1    
    11    5   76 1    
    12    6    7 1    
    13    6   77 1    
    14    6   78 1    
    15    7    8 1    
    16    8    9 1    
    17    8   79 1    
    18    8   80 1    
    19    9   10 ar   
    20    9   14 ar   
    21   10   11 ar   
    22   10   81 1    
    23   11   12 ar   
    24   11   71 1    
    25   12   13 ar   
    26   12   82 1    
    27   13   14 ar   
    28   13   15 1    
    29   14   83 1    
    30   15   16 1    
    31   15   84 1    
    32   15   85 1    
    33   16   17 1    
    34   17   18 1    
    35   17   86 1    
    36   17   87 1    
    37   18   19 1    
    38   18   37 1    
    39   18   88 1    
    40   19   20 am   BACKBONE|DICT|INTERRES
    41   19   89 1    
    42   20   21 2    
    43   20   22 1    
    44   22   23 1    
    45   22   24 1    
    46   22   90 1    
    47   23   91 1    
    48   23   92 1    
    49   23   93 1    
    50   24   25 am   BACKBONE|DICT|INTERRES
    51   24   94 1    
    52   25   26 2    
    53   25   27 1    
    54   27   28 1    
    55   27   29 1    
    56   27   95 1    
    57   28   96 1    
    58   28   97 1    
    59   28   98 1    
    60   29   30 am   BACKBONE|DICT|INTERRES
    61   29   99 1    
    62   30   31 2    
    63   30   32 1    
    64   32   33 1    
    65   32   34 1    
    66   32  100 1    
    67   33  101 1    
    68   33  102 1    
    69   33  103 1    
    70   34   35 am   BACKBONE|DICT|INTERRES
    71   34  104 1    
    72   35   36 2    
    73   37   38 2    
    74   37   39 am   BACKBONE|DICT|INTERRES
    75   39   40 1    
    76   39  105 1    
    77   40   41 1    
    78   40   42 1    
    79   40  106 1    
    80   41  107 1    
    81   41  108 1    
    82   41  109 1    
    83   42   43 2    
    84   42   44 am   BACKBONE|DICT|INTERRES
    85   44   45 1    
    86   44  110 1    
    87   45   46 1    
    88   45   47 1    
    89   45  111 1    
    90   46  112 1    
    91   46  113 1    
    92   46  114 1    
    93   47   48 2    
    94   47   49 am   BACKBONE|DICT|INTERRES
    95   49   50 1    
    96   49  115 1    
    97   50   51 1    
    98   50   52 1    
    99   50  116 1    
   100   51  117 1    
   101   51  118 1    
   102   51  119 1    
   103   52   53 2    
   104   52   54 am   BACKBONE|DICT|INTERRES
   105   54   55 1    
   106   54  120 1    
   107   55   56 1    
   108   55   57 1    
   109   55  121 1    
   110   56  122 1    
   111   56  123 1    
   112   56  124 1    
   113   57   58 2    
   114   57   59 am   BACKBONE|DICT|INTERRES
   115   59   60 1    
   116   59  125 1    
   117   60   61 1    
   118   60   62 1    
   119   60  126 1    
   120   61  127 1    
   121   61  128 1    
   122   61  129 1    
   123   62   63 2    
   124   62   64 am   BACKBONE|DICT|INTERRES
   125   64   65 1    
   126   64  130 1    
   127   65   66 1    
   128   65   69 1    
   129   65  131 1    
   130   66   67 am   BACKBONE|DICT|INTERRES
   131   66   68 2    
   132   67  132 1    
   133   67  133 1    
   134   69   70 1    
   135   69  134 1    
   136   69  135 1    
   137   70   71 1    
   138   71  136 1    
   139   71  137 1    
@<TRIPOS>SUBSTRUCTURE
     1 UNK         1 GROUP             0       ****    0 ROOT    
