@<TRIPOS>MOLECULE
3R136
137   139    1
SMALL
USER_CHARGES


@<TRIPOS>ATOM
      1 CA         31.3867   25.9756    5.0622 C.3       0 UNK        -0.1979 
      2 C          29.9630   25.4512    5.0950 C.2       0 UNK         0.4864 
      3 O          29.3625   25.3316    6.1633 O.2       0 UNK        -0.5359 
      4 N          29.4426   25.1090    3.9151 N.am      1 UNK        -0.4318 
      5 CA         28.1636   24.4288    3.7136 C.3       1 UNK         0.0824 
      6 C6         28.2226   23.4713    2.4922 C.3       12 UNK        -0.0944 
      7 S7         28.9699   24.2303    1.0046 S.3       12 UNK        -0.2672 
      8 C8         30.6665   23.5623    1.1166 C.3       12 UNK         0.0333 
      9 C9         31.6723   24.4487    0.3971 C.ar      12 UNK        -0.0807 
     10 C10        32.7361   25.0422    1.0885 C.ar      12 UNK        -0.0894 
     11 C11        33.6604   25.8463    0.4106 C.ar      12 UNK        -0.0804 
     12 C12        33.5052   26.0669   -0.9624 C.ar      12 UNK        -0.0824 
     13 C13        32.4350   25.4941   -1.6550 C.ar      12 UNK        -0.0762 
     14 C14        31.5396   24.6691   -0.9744 C.ar      12 UNK        -0.0782 
     15 C15        32.2007   25.7997   -3.1263 C.3       12 UNK         0.0230 
     16 S16        31.7088   27.5325   -3.4295 S.3       12 UNK        -0.2608 
     17 C17        30.5934   27.9580   -2.0440 C.3       12 UNK        -0.0989 
     18 CA         29.0978   27.7068   -2.3504 C.3       5 UNK         0.0716 
     19 N          28.7287   26.2960   -2.3153 N.am      5 UNK        -0.4135 
     20 C          28.2165   25.6082   -3.3386 C.2       4 UNK         0.5031 
     21 O          28.3333   25.9309   -4.5214 O.2       4 UNK        -0.5229 
     22 CA         27.3558   24.3861   -2.9665 C.3       4 UNK         0.0329 
     23 CB         28.2080   23.1156   -2.8162 C.3       4 UNK        -0.2001 
     24 N          26.5495   24.5894   -1.7535 N.am      4 UNK        -0.4303 
     25 C          25.5561   25.4857   -1.6337 C.2       3 UNK         0.5044 
     26 O          25.2153   26.2577   -2.5303 O.2       3 UNK        -0.5152 
     27 CA         24.8224   25.5376   -0.2884 C.3       3 UNK         0.0319 
     28 CB         24.5167   24.1396    0.2880 C.3       3 UNK        -0.2001 
     29 N          25.6062   26.3186    0.6630 N.am      3 UNK        -0.4354 
     30 C          25.1188   26.9823    1.7178 C.2       2 UNK         0.4964 
     31 O          23.9162   27.0793    1.9718 O.2       2 UNK        -0.5047 
     32 CA         26.1710   27.5906    2.6715 C.3       2 UNK         0.0288 
     33 CB         25.5540   28.2641    3.9150 C.3       2 UNK        -0.2113 
     34 N          27.1928   26.6084    3.0640 N.am      2 UNK        -0.4145 
     35 C          26.9714   25.3971    3.6054 C.2       1 UNK         0.5006 
     36 O          25.8679   25.0056    3.9903 O.2       1 UNK        -0.5103 
     37 C          28.2271   28.3571   -1.2648 C.2       5 UNK         0.5055 
     38 O          27.9040   27.6982   -0.2717 O.2       5 UNK        -0.5220 
     39 N          27.8848   29.6375   -1.4511 N.am      6 UNK        -0.4450 
     40 CA         27.0558   30.4182   -0.5246 C.3       6 UNK         0.0367 
     41 CB         26.5923   31.7029   -1.2315 C.3       6 UNK        -0.1929 
     42 C          27.7435   30.7565    0.8136 C.2       6 UNK         0.5070 
     43 O          27.0634   31.2022    1.7380 O.2       6 UNK        -0.5237 
     44 N          29.0655   30.5565    0.8964 N.am      7 UNK        -0.4739 
     45 CA         29.8725   30.7533    2.0980 C.3       7 UNK         0.0276 
     46 CB         31.3604   30.6524    1.7263 C.3       7 UNK        -0.1927 
     47 C          29.5206   29.7391    3.2003 C.2       7 UNK         0.5013 
     48 O          29.4517   28.5362    2.9310 O.2       7 UNK        -0.5193 
     49 N          29.3352   30.2565    4.4203 N.am      8 UNK        -0.4253 
     50 CA         29.1421   29.4845    5.6474 C.3       8 UNK         0.0242 
     51 CB         28.2061   30.2722    6.5865 C.3       8 UNK        -0.2000 
     52 C          30.5050   29.1507    6.2851 C.2       8 UNK         0.4948 
     53 O          31.5046   29.0618    5.5699 O.2       8 UNK        -0.5275 
     54 N          30.5328   28.9787    7.6162 N.am      9 UNK        -0.4246 
     55 CA         31.6645   28.5144    8.4379 C.3       9 UNK         0.0261 
     56 CB         31.2896   28.6445    9.9232 C.3       9 UNK        -0.1959 
     57 C          33.0326   29.1775    8.1777 C.2       9 UNK         0.5033 
     58 O          34.0595   28.5347    8.4016 O.2       9 UNK        -0.5390 
     59 N          33.0312   30.4164    7.6658 N.am      10 UNK        -0.4215 
     60 CA         34.2065   31.1416    7.1738 C.3       10 UNK         0.0240 
     61 CB         33.7729   32.5417    6.7098 C.3       10 UNK        -0.1982 
     62 C          34.9784   30.4195    6.0486 C.2       10 UNK         0.4970 
     63 O          36.1799   30.6564    5.9152 O.2       10 UNK        -0.4916 
     64 N          34.3034   29.5499    5.2801 N.am      11 UNK        -0.4279 
     65 CA         34.9316   28.6546    4.2941 C.3       11 UNK         0.1003 
     66 C          35.7518   27.4848    4.9192 C.2       11 UNK         0.5709 
     67 N          35.6552   27.2108    6.2162 N.am      11 UNK        -0.7358 
     68 O          36.5040   26.8168    4.2148 O.2       11 UNK        -0.4999 
     69 C69        33.9043   28.1439    3.2394 C.3       12 UNK        -0.0954 
     70 S70        34.5546   28.2227    1.5367 S.3       12 UNK        -0.2268 
     71 C71        34.8410   26.4670    1.1445 C.3       12 UNK         0.0203 
     72 H72        31.4659   26.7821    4.3346 H         1 UNK         0.0888 
     73 H73        31.6878   26.3576    6.0363 H         1 UNK         0.0888 
     74 H74        32.0800   25.1836    4.7810 H         1 UNK         0.0888 
     75 H75        29.9678   25.2795    3.0687 H         1 UNK         0.3017 
     76 H76        27.9674   23.8099    4.5925 H         1 UNK         0.0873 
     77 H77        28.7940   22.5810    2.7591 H         1 UNK         0.0745 
     78 H78        27.2289   23.0991    2.2354 H         1 UNK         0.0745 
     79 H79        30.9536   23.4449    2.1623 H         1 UNK         0.0705 
     80 H80        30.6854   22.5628    0.6799 H         1 UNK         0.0705 
     81 H81        32.8531   24.8728    2.1499 H         1 UNK         0.1334 
     82 H82        34.2021   26.7062   -1.4874 H         1 UNK         0.1417 
     83 H83        30.7154   24.2210   -1.5075 H         1 UNK         0.1562 
     84 H84        31.4284   25.1473   -3.5371 H         1 UNK         0.0748 
     85 H85        33.1095   25.5853   -3.6901 H         1 UNK         0.0748 
     86 H86        30.7610   29.0208   -1.8588 H         1 UNK         0.0940 
     87 H87        30.8905   27.4660   -1.1175 H         1 UNK         0.0940 
     88 H88        28.8372   28.1506   -3.3139 H         1 UNK         0.0703 
     89 H89        28.5291   25.9679   -1.3788 H         1 UNK         0.3081 
     90 H90        26.6638   24.2244   -3.7960 H         1 UNK         0.0719 
     91 H91        28.7987   23.1248   -1.9015 H         1 UNK         0.0809 
     92 H92        27.5797   22.2252   -2.7911 H         1 UNK         0.0809 
     93 H93        28.8962   22.9996   -3.6548 H         1 UNK         0.0809 
     94 H94        26.7641   23.9999   -0.9618 H         1 UNK         0.2990 
     95 H95        23.8729   26.0472   -0.4662 H         1 UNK         0.0690 
     96 H96        24.0090   23.5136   -0.4471 H         1 UNK         0.0788 
     97 H97        23.8620   24.2104    1.1569 H         1 UNK         0.0788 
     98 H98        25.4199   23.6170    0.6031 H         1 UNK         0.0788 
     99 H99        26.5970   26.4207    0.4584 H         1 UNK         0.2993 
    100 H100       26.6909   28.3617    2.1038 H         1 UNK         0.0949 
    101 H101       26.3229   28.7239    4.5347 H         1 UNK         0.0767 
    102 H102       24.8596   29.0534    3.6249 H         1 UNK         0.0767 
    103 H103       25.0037   27.5532    4.5320 H         1 UNK         0.0767 
    104 H104       28.1438   26.8685    2.8222 H         1 UNK         0.3013 
    105 H105       28.1959   30.1129   -2.2868 H         1 UNK         0.3121 
    106 H106       26.1710   29.8240   -0.2848 H         1 UNK         0.0774 
    107 H107       27.4346   32.3390   -1.5064 H         1 UNK         0.0815 
    108 H108       25.9387   32.2908   -0.5853 H         1 UNK         0.0815 
    109 H109       26.0287   31.4779   -2.1371 H         1 UNK         0.0815 
    110 H110       29.5328   30.1528    0.1001 H         1 UNK         0.2987 
    111 H111       29.6782   31.7635    2.4651 H         1 UNK         0.0949 
    112 H112       31.6140   29.6618    1.3451 H         1 UNK         0.0806 
    113 H113       31.6340   31.3852    0.9671 H         1 UNK         0.0806 
    114 H114       31.9912   30.8390    2.5965 H         1 UNK         0.0806 
    115 H115       29.4443   31.2529    4.5390 H         1 UNK         0.3010 
    116 H116       28.6624   28.5341    5.4029 H         1 UNK         0.0829 
    117 H117       27.2925   30.5691    6.0706 H         1 UNK         0.0813 
    118 H118       27.8971   29.6714    7.4426 H         1 UNK         0.0813 
    119 H119       28.6787   31.1791    6.9666 H         1 UNK         0.0813 
    120 H120       29.6609   29.0972    8.1116 H         1 UNK         0.3038 
    121 H121       31.7905   27.4530    8.2175 H         1 UNK         0.0769 
    122 H122       32.0961   28.2849   10.5643 H         1 UNK         0.0811 
    123 H123       31.0916   29.6809   10.1995 H         1 UNK         0.0811 
    124 H124       30.4040   28.0561   10.1641 H         1 UNK         0.0811 
    125 H125       32.1342   30.8480    7.5003 H         1 UNK         0.3204 
    126 H126       34.8936   31.2547    8.0148 H         1 UNK         0.0748 
    127 H127       34.6299   33.1217    6.3641 H         1 UNK         0.0771 
    128 H128       33.0604   32.4901    5.8852 H         1 UNK         0.0771 
    129 H129       33.3103   33.1045    7.5208 H         1 UNK         0.0771 
    130 H130       33.3085   29.4057    5.4442 H         1 UNK         0.2980 
    131 H131       35.6674   29.2691    3.7720 H         1 UNK         0.0545 
    132 H132       36.2013   26.4543    6.5955 H         1 UNK         0.3459 
    133 H133       35.0617   27.7566    6.8311 H         1 UNK         0.3459 
    134 H134       33.0016   28.7545    3.2548 H         1 UNK         0.0616 
    135 H135       33.5663   27.1311    3.4598 H         1 UNK         0.0616 
    136 H136       35.0721   25.9077    2.0519 H         1 UNK         0.0634 
    137 H137       35.7300   26.3959    0.5163 H         1 UNK         0.0634 
@<TRIPOS>BOND
     1    1    2 1    
     2    1   72 1    
     3    1   73 1    
     4    1   74 1    
     5    2    3 2    
     6    2    4 am   BACKBONE|DICT|INTERRES
     7    4    5 1    
     8    4   75 1    
     9    5    6 1    
    10    5   35 1    
    11    5   76 1    
    12    6    7 1    
    13    6   77 1    
    14    6   78 1    
    15    7    8 1    
    16    8    9 1    
    17    8   79 1    
    18    8   80 1    
    19    9   10 ar   
    20    9   14 ar   
    21   10   11 ar   
    22   10   81 1    
    23   11   12 ar   
    24   11   71 1    
    25   12   13 ar   
    26   12   82 1    
    27   13   14 ar   
    28   13   15 1    
    29   14   83 1    
    30   15   16 1    
    31   15   84 1    
    32   15   85 1    
    33   16   17 1    
    34   17   18 1    
    35   17   86 1    
    36   17   87 1    
    37   18   19 1    
    38   18   37 1    
    39   18   88 1    
    40   19   20 am   BACKBONE|DICT|INTERRES
    41   19   89 1    
    42   20   21 2    
    43   20   22 1    
    44   22   23 1    
    45   22   24 1    
    46   22   90 1    
    47   23   91 1    
    48   23   92 1    
    49   23   93 1    
    50   24   25 am   BACKBONE|DICT|INTERRES
    51   24   94 1    
    52   25   26 2    
    53   25   27 1    
    54   27   28 1    
    55   27   29 1    
    56   27   95 1    
    57   28   96 1    
    58   28   97 1    
    59   28   98 1    
    60   29   30 am   BACKBONE|DICT|INTERRES
    61   29   99 1    
    62   30   31 2    
    63   30   32 1    
    64   32   33 1    
    65   32   34 1    
    66   32  100 1    
    67   33  101 1    
    68   33  102 1    
    69   33  103 1    
    70   34   35 am   BACKBONE|DICT|INTERRES
    71   34  104 1    
    72   35   36 2    
    73   37   38 2    
    74   37   39 am   BACKBONE|DICT|INTERRES
    75   39   40 1    
    76   39  105 1    
    77   40   41 1    
    78   40   42 1    
    79   40  106 1    
    80   41  107 1    
    81   41  108 1    
    82   41  109 1    
    83   42   43 2    
    84   42   44 am   BACKBONE|DICT|INTERRES
    85   44   45 1    
    86   44  110 1    
    87   45   46 1    
    88   45   47 1    
    89   45  111 1    
    90   46  112 1    
    91   46  113 1    
    92   46  114 1    
    93   47   48 2    
    94   47   49 am   BACKBONE|DICT|INTERRES
    95   49   50 1    
    96   49  115 1    
    97   50   51 1    
    98   50   52 1    
    99   50  116 1    
   100   51  117 1    
   101   51  118 1    
   102   51  119 1    
   103   52   53 2    
   104   52   54 am   BACKBONE|DICT|INTERRES
   105   54   55 1    
   106   54  120 1    
   107   55   56 1    
   108   55   57 1    
   109   55  121 1    
   110   56  122 1    
   111   56  123 1    
   112   56  124 1    
   113   57   58 2    
   114   57   59 am   BACKBONE|DICT|INTERRES
   115   59   60 1    
   116   59  125 1    
   117   60   61 1    
   118   60   62 1    
   119   60  126 1    
   120   61  127 1    
   121   61  128 1    
   122   61  129 1    
   123   62   63 2    
   124   62   64 am   BACKBONE|DICT|INTERRES
   125   64   65 1    
   126   64  130 1    
   127   65   66 1    
   128   65   69 1    
   129   65  131 1    
   130   66   67 am   BACKBONE|DICT|INTERRES
   131   66   68 2    
   132   67  132 1    
   133   67  133 1    
   134   69   70 1    
   135   69  134 1    
   136   69  135 1    
   137   70   71 1    
   138   71  136 1    
   139   71  137 1    
@<TRIPOS>SUBSTRUCTURE
     1 UNK         1 GROUP             0       ****    0 ROOT    
