@<TRIPOS>MOLECULE
3R136
137   139    1
SMALL
USER_CHARGES


@<TRIPOS>ATOM
      1 CA         29.5552   19.6890   -1.3098 C.3       0 UNK        -0.1979 
      2 C          28.9901   21.0600   -0.9705 C.2       0 UNK         0.4864 
      3 O          27.7888   21.1739   -0.7254 O.2       0 UNK        -0.5359 
      4 N          29.8468   22.0951   -0.9875 N.am      1 UNK        -0.4318 
      5 CA         29.5997   23.5016   -0.6139 C.3       1 UNK         0.0824 
      6 C6         29.6795   23.7421    0.9212 C.3       12 UNK        -0.0944 
      7 S7         28.3029   23.0658    1.9208 S.3       12 UNK        -0.2672 
      8 C8         29.1640   22.6023    3.4581 C.3       12 UNK         0.0333 
      9 C9         29.6684   23.8344    4.1937 C.ar      12 UNK        -0.0807 
     10 C10        31.0232   24.1798    4.1591 C.ar      12 UNK        -0.0894 
     11 C11        31.4793   25.3476    4.7810 C.ar      12 UNK        -0.0804 
     12 C12        30.5561   26.1725    5.4347 C.ar      12 UNK        -0.0824 
     13 C13        29.1988   25.8430    5.4676 C.ar      12 UNK        -0.0762 
     14 C14        28.7658   24.6538    4.8756 C.ar      12 UNK        -0.0782 
     15 C15        28.1959   26.7985    6.0993 C.3       12 UNK         0.0230 
     16 S16        26.9500   27.3835    4.9003 S.3       12 UNK        -0.2608 
     17 C17        27.9751   28.0791    3.5539 C.3       12 UNK        -0.0989 
     18 CA         28.1375   27.1064    2.3515 C.3       5 UNK         0.0716 
     19 N          26.8723   26.5802    1.8131 N.am      5 UNK        -0.4135 
     20 C          25.8429   27.2719    1.3075 C.2       4 UNK         0.5031 
     21 O          25.8463   28.4997    1.1939 O.2       4 UNK        -0.5229 
     22 CA         24.6194   26.4734    0.8287 C.3       4 UNK         0.0329 
     23 CB         23.8562   27.1939   -0.3026 C.3       4 UNK        -0.2001 
     24 N          24.9674   25.1168    0.3955 N.am      4 UNK        -0.4303 
     25 C          24.1251   24.0723    0.4432 C.2       3 UNK         0.5044 
     26 O          23.0262   24.1198    1.0001 O.2       3 UNK        -0.5152 
     27 CA         24.5576   22.7597   -0.2521 C.3       3 UNK         0.0319 
     28 CB         23.3579   21.9403   -0.7728 C.3       3 UNK        -0.2001 
     29 N          25.5507   22.9469   -1.3152 N.am      3 UNK        -0.4354 
     30 C          25.4565   23.7270   -2.4067 C.2       2 UNK         0.4964 
     31 O          24.4149   24.2811   -2.7613 O.2       2 UNK        -0.5047 
     32 CA         26.7535   23.9683   -3.2160 C.3       2 UNK         0.0288 
     33 CB         26.8202   25.4028   -3.7840 C.3       2 UNK        -0.2113 
     34 N          27.9860   23.6572   -2.4739 N.am      2 UNK        -0.4145 
     35 C          28.3755   24.1666   -1.2923 C.2       1 UNK         0.5006 
     36 O          27.7773   25.0836   -0.7247 O.2       1 UNK        -0.5103 
     37 C          29.0755   27.6911    1.2734 C.2       5 UNK         0.5055 
     38 O          30.2754   27.4173    1.3172 O.2       5 UNK        -0.5220 
     39 N          28.5255   28.4667    0.3281 N.am      6 UNK        -0.4450 
     40 CA         29.1305   29.0710   -0.8684 C.3       6 UNK         0.0367 
     41 CB         29.6614   27.9895   -1.8295 C.3       6 UNK        -0.1929 
     42 C          30.2041   30.1400   -0.5931 C.2       6 UNK         0.5070 
     43 O          30.1535   31.2116   -1.1969 O.2       6 UNK        -0.5237 
     44 N          31.1431   29.8428    0.3078 N.am      7 UNK        -0.4739 
     45 CA         32.2493   30.7012    0.7222 C.3       7 UNK         0.0276 
     46 CB         33.5677   30.1309    0.1665 C.3       7 UNK        -0.1927 
     47 C          32.2526   30.8204    2.2521 C.2       7 UNK         0.5013 
     48 O          33.2929   30.6332    2.8845 O.2       7 UNK        -0.5193 
     49 N          31.0851   31.1446    2.8286 N.am      8 UNK        -0.4253 
     50 CA         30.8459   31.2538    4.2748 C.3       8 UNK         0.0242 
     51 CB         29.3936   31.6913    4.5223 C.3       8 UNK        -0.2000 
     52 C          31.8198   32.1882    5.0186 C.2       8 UNK         0.4948 
     53 O          32.1856   31.8968    6.1571 O.2       8 UNK        -0.5275 
     54 N          32.2563   33.2635    4.3473 N.am      9 UNK        -0.4246 
     55 CA         33.2645   34.2058    4.8390 C.3       9 UNK         0.0261 
     56 CB         33.2867   35.4429    3.9264 C.3       9 UNK        -0.1959 
     57 C          34.6778   33.6024    4.9599 C.2       9 UNK         0.5033 
     58 O          35.4554   34.0790    5.7880 O.2       9 UNK        -0.5390 
     59 N          34.9913   32.5818    4.1481 N.am      10 UNK        -0.4215 
     60 CA         36.2429   31.8258    4.2217 C.3       10 UNK         0.0240 
     61 CB         36.6204   31.2960    2.8280 C.3       10 UNK        -0.1982 
     62 C          36.1288   30.6745    5.2318 C.2       10 UNK         0.4970 
     63 O          37.0895   30.4206    5.9595 O.2       10 UNK        -0.4916 
     64 N          34.9638   30.0116    5.2664 N.am      11 UNK        -0.4279 
     65 CA         34.6251   28.9628    6.2406 C.3       11 UNK         0.1003 
     66 C          34.6026   29.4701    7.7095 C.2       11 UNK         0.5709 
     67 N          34.0129   30.6268    7.9856 N.am      11 UNK        -0.7358 
     68 O          35.1260   28.8081    8.6025 O.2       11 UNK        -0.4999 
     69 C69        33.2869   28.2633    5.8966 C.3       12 UNK        -0.0954 
     70 S70        33.3123   27.4227    4.2755 S.3       12 UNK        -0.2268 
     71 C71        32.9683   25.6912    4.7417 C.3       12 UNK         0.0203 
     72 H72        30.6232   19.7271   -1.5236 H         1 UNK         0.0888 
     73 H73        29.4011   19.0057   -0.4751 H         1 UNK         0.0888 
     74 H74        29.0481   19.2797   -2.1830 H         1 UNK         0.0888 
     75 H75        30.8067   21.9006   -1.2378 H         1 UNK         0.3017 
     76 H76        30.4463   24.0423   -1.0401 H         1 UNK         0.0873 
     77 H77        30.6165   23.3237    1.2903 H         1 UNK         0.0745 
     78 H78        29.7491   24.8092    1.1257 H         1 UNK         0.0745 
     79 H79        29.9821   21.9178    3.2286 H         1 UNK         0.0705 
     80 H80        28.4738   22.0521    4.0992 H         1 UNK         0.0705 
     81 H81        31.7224   23.5424    3.6354 H         1 UNK         0.1334 
     82 H82        30.8846   27.0874    5.9026 H         1 UNK         0.1417 
     83 H83        27.7142   24.4001    4.8885 H         1 UNK         0.1562 
     84 H84        28.6988   27.6641    6.5335 H         1 UNK         0.0748 
     85 H85        27.6880   26.2925    6.9214 H         1 UNK         0.0748 
     86 H86        28.9520   28.3554    3.9560 H         1 UNK         0.0940 
     87 H87        27.5105   29.0114    3.2294 H         1 UNK         0.0940 
     88 H88        28.6583   26.2250    2.7193 H         1 UNK         0.0703 
     89 H89        26.8023   25.5725    1.8157 H         1 UNK         0.3081 
     90 H90        23.9607   26.4100    1.6973 H         1 UNK         0.0719 
     91 H91        24.4774   27.3058   -1.1921 H         1 UNK         0.0809 
     92 H92        22.9587   26.6462   -0.5904 H         1 UNK         0.0809 
     93 H93        23.5363   28.1904    0.0045 H         1 UNK         0.0809 
     94 H94        25.8642   25.0103   -0.0729 H         1 UNK         0.2990 
     95 H95        25.0559   22.1663    0.5160 H         1 UNK         0.0690 
     96 H96        23.6860   21.0140   -1.2445 H         1 UNK         0.0788 
     97 H97        22.7729   22.5005   -1.5029 H         1 UNK         0.0788 
     98 H98        22.6858   21.6660    0.0412 H         1 UNK         0.0788 
     99 H99        26.4425   22.4885   -1.1361 H         1 UNK         0.2993 
    100 H100       26.7167   23.2751   -4.0577 H         1 UNK         0.0949 
    101 H101       26.7625   26.1528   -2.9944 H         1 UNK         0.0767 
    102 H102       27.7440   25.5690   -4.3382 H         1 UNK         0.0767 
    103 H103       25.9941   25.5919   -4.4706 H         1 UNK         0.0767 
    104 H104       28.5324   22.8922   -2.8445 H         1 UNK         0.3013 
    105 H105       27.5300   28.6483    0.4450 H         1 UNK         0.3121 
    106 H106       28.3113   29.5810   -1.3779 H         1 UNK         0.0774 
    107 H107       30.0400   28.4370   -2.7493 H         1 UNK         0.0815 
    108 H108       30.4765   27.4149   -1.3887 H         1 UNK         0.0815 
    109 H109       28.8738   27.2905   -2.1096 H         1 UNK         0.0815 
    110 H110       31.0687   28.9372    0.7722 H         1 UNK         0.2987 
    111 H111       32.1196   31.7114    0.3280 H         1 UNK         0.0949 
    112 H112       33.7805   29.1414    0.5736 H         1 UNK         0.0806 
    113 H113       33.5365   30.0473   -0.9199 H         1 UNK         0.0806 
    114 H114       34.4099   30.7772    0.4165 H         1 UNK         0.0806 
    115 H115       30.2874   31.2847    2.2254 H         1 UNK         0.3010 
    116 H116       30.9720   30.2536    4.6913 H         1 UNK         0.0829 
    117 H117       29.1785   31.7407    5.5908 H         1 UNK         0.0813 
    118 H118       29.1917   32.6781    4.1037 H         1 UNK         0.0813 
    119 H119       28.6834   30.9907    4.0851 H         1 UNK         0.0813 
    120 H120       31.8949   33.4248    3.4185 H         1 UNK         0.3038 
    121 H121       32.9617   34.5250    5.8387 H         1 UNK         0.0769 
    122 H122       34.0082   36.1786    4.2848 H         1 UNK         0.0811 
    123 H123       32.3139   35.9341    3.8985 H         1 UNK         0.0811 
    124 H124       33.5649   35.1862    2.9034 H         1 UNK         0.0811 
    125 H125       34.2745   32.1942    3.5427 H         1 UNK         0.3204 
    126 H126       37.0454   32.4881    4.5540 H         1 UNK         0.0748 
    127 H127       37.5903   30.7977    2.8539 H         1 UNK         0.0771 
    128 H128       35.8960   30.5715    2.4552 H         1 UNK         0.0771 
    129 H129       36.6908   32.1052    2.1011 H         1 UNK         0.0771 
    130 H130       34.2498   30.2361    4.5816 H         1 UNK         0.2980 
    131 H131       35.4136   28.2100    6.1811 H         1 UNK         0.0545 
    132 H132       33.5034   31.1344    7.2666 H         1 UNK         0.3459 
    133 H133       34.0011   30.9594    8.9360 H         1 UNK         0.3459 
    134 H134       33.0399   27.5352    6.6711 H         1 UNK         0.0616 
    135 H135       32.4723   28.9874    5.8951 H         1 UNK         0.0616 
    136 H136       33.4214   25.4622    5.7068 H         1 UNK         0.0634 
    137 H137       33.4759   25.0560    4.0142 H         1 UNK         0.0634 
@<TRIPOS>BOND
     1    1    2 1    
     2    1   72 1    
     3    1   73 1    
     4    1   74 1    
     5    2    3 2    
     6    2    4 am   BACKBONE|DICT|INTERRES
     7    4    5 1    
     8    4   75 1    
     9    5    6 1    
    10    5   35 1    
    11    5   76 1    
    12    6    7 1    
    13    6   77 1    
    14    6   78 1    
    15    7    8 1    
    16    8    9 1    
    17    8   79 1    
    18    8   80 1    
    19    9   10 ar   
    20    9   14 ar   
    21   10   11 ar   
    22   10   81 1    
    23   11   12 ar   
    24   11   71 1    
    25   12   13 ar   
    26   12   82 1    
    27   13   14 ar   
    28   13   15 1    
    29   14   83 1    
    30   15   16 1    
    31   15   84 1    
    32   15   85 1    
    33   16   17 1    
    34   17   18 1    
    35   17   86 1    
    36   17   87 1    
    37   18   19 1    
    38   18   37 1    
    39   18   88 1    
    40   19   20 am   BACKBONE|DICT|INTERRES
    41   19   89 1    
    42   20   21 2    
    43   20   22 1    
    44   22   23 1    
    45   22   24 1    
    46   22   90 1    
    47   23   91 1    
    48   23   92 1    
    49   23   93 1    
    50   24   25 am   BACKBONE|DICT|INTERRES
    51   24   94 1    
    52   25   26 2    
    53   25   27 1    
    54   27   28 1    
    55   27   29 1    
    56   27   95 1    
    57   28   96 1    
    58   28   97 1    
    59   28   98 1    
    60   29   30 am   BACKBONE|DICT|INTERRES
    61   29   99 1    
    62   30   31 2    
    63   30   32 1    
    64   32   33 1    
    65   32   34 1    
    66   32  100 1    
    67   33  101 1    
    68   33  102 1    
    69   33  103 1    
    70   34   35 am   BACKBONE|DICT|INTERRES
    71   34  104 1    
    72   35   36 2    
    73   37   38 2    
    74   37   39 am   BACKBONE|DICT|INTERRES
    75   39   40 1    
    76   39  105 1    
    77   40   41 1    
    78   40   42 1    
    79   40  106 1    
    80   41  107 1    
    81   41  108 1    
    82   41  109 1    
    83   42   43 2    
    84   42   44 am   BACKBONE|DICT|INTERRES
    85   44   45 1    
    86   44  110 1    
    87   45   46 1    
    88   45   47 1    
    89   45  111 1    
    90   46  112 1    
    91   46  113 1    
    92   46  114 1    
    93   47   48 2    
    94   47   49 am   BACKBONE|DICT|INTERRES
    95   49   50 1    
    96   49  115 1    
    97   50   51 1    
    98   50   52 1    
    99   50  116 1    
   100   51  117 1    
   101   51  118 1    
   102   51  119 1    
   103   52   53 2    
   104   52   54 am   BACKBONE|DICT|INTERRES
   105   54   55 1    
   106   54  120 1    
   107   55   56 1    
   108   55   57 1    
   109   55  121 1    
   110   56  122 1    
   111   56  123 1    
   112   56  124 1    
   113   57   58 2    
   114   57   59 am   BACKBONE|DICT|INTERRES
   115   59   60 1    
   116   59  125 1    
   117   60   61 1    
   118   60   62 1    
   119   60  126 1    
   120   61  127 1    
   121   61  128 1    
   122   61  129 1    
   123   62   63 2    
   124   62   64 am   BACKBONE|DICT|INTERRES
   125   64   65 1    
   126   64  130 1    
   127   65   66 1    
   128   65   69 1    
   129   65  131 1    
   130   66   67 am   BACKBONE|DICT|INTERRES
   131   66   68 2    
   132   67  132 1    
   133   67  133 1    
   134   69   70 1    
   135   69  134 1    
   136   69  135 1    
   137   70   71 1    
   138   71  136 1    
   139   71  137 1    
@<TRIPOS>SUBSTRUCTURE
     1 UNK         1 GROUP             0       ****    0 ROOT    
