@<TRIPOS>MOLECULE
3R136
137   139    1
SMALL
USER_CHARGES


@<TRIPOS>ATOM
      1 CA         26.2705   20.0362    2.5241 C.3       0 UNK        -0.1979 
      2 C          26.8069   20.8739    1.3739 C.2       0 UNK         0.4864 
      3 O          26.3018   21.9702    1.1349 O.2       0 UNK        -0.5359 
      4 N          27.8109   20.3556    0.6497 N.am      1 UNK        -0.4318 
      5 CA         28.5564   21.0234   -0.4335 C.3       1 UNK         0.0824 
      6 C6         29.4978   22.1461    0.0859 C.3       12 UNK        -0.0944 
      7 S7         30.6600   21.5404    1.3566 S.3       12 UNK        -0.2672 
      8 C8         31.5410   23.0780    1.7966 C.3       12 UNK         0.0333 
      9 C9         30.8084   24.0425    2.7345 C.ar      12 UNK        -0.0807 
     10 C10        31.5011   25.1777    3.1696 C.ar      12 UNK        -0.0894 
     11 C11        30.8963   26.1060    4.0204 C.ar      12 UNK        -0.0804 
     12 C12        29.5851   25.8948    4.4493 C.ar      12 UNK        -0.0824 
     13 C13        28.8642   24.7865    3.9972 C.ar      12 UNK        -0.0762 
     14 C14        29.4838   23.8550    3.1585 C.ar      12 UNK        -0.0782 
     15 C15        27.3951   24.6314    4.3623 C.3       12 UNK         0.0230 
     16 S16        26.3082   25.2118    3.0150 S.3       12 UNK        -0.2608 
     17 C17        26.7796   26.9716    2.8681 C.3       12 UNK        -0.0989 
     18 CA         27.8235   27.1993    1.7434 C.3       5 UNK         0.0716 
     19 N          27.2715   26.9056    0.4251 N.am      5 UNK        -0.4135 
     20 C          27.9799   26.5718   -0.6586 C.2       4 UNK         0.5031 
     21 O          29.2113   26.5159   -0.6788 O.2       4 UNK        -0.5229 
     22 CA         27.1602   26.2060   -1.9113 C.3       4 UNK         0.0329 
     23 CB         28.0447   25.8139   -3.1092 C.3       4 UNK        -0.2001 
     24 N          26.2249   25.1141   -1.6194 N.am      4 UNK        -0.4303 
     25 C          25.0250   25.2692   -1.0370 C.2       3 UNK         0.5044 
     26 O          24.5788   26.3749   -0.7240 O.2       3 UNK        -0.5152 
     27 CA         24.2076   24.0113   -0.6797 C.3       3 UNK         0.0319 
     28 CB         22.7028   24.1789   -0.9805 C.3       3 UNK        -0.2001 
     29 N          24.7386   22.7640   -1.2392 N.am      3 UNK        -0.4354 
     30 C          24.7692   22.3782   -2.5255 C.2       2 UNK         0.4964 
     31 O          24.2679   23.0244   -3.4466 O.2       2 UNK        -0.5047 
     32 CA         25.5066   21.0542   -2.8341 C.3       2 UNK         0.0288 
     33 CB         26.0349   20.9940   -4.2840 C.3       2 UNK        -0.2113 
     34 N          26.5835   20.7420   -1.8811 N.am      2 UNK        -0.4145 
     35 C          27.6437   21.5125   -1.5832 C.2       1 UNK         0.5006 
     36 O          27.8746   22.5874   -2.1393 O.2       1 UNK        -0.5103 
     37 C          28.3996   28.6251    1.7658 C.2       5 UNK         0.5055 
     38 O          27.6673   29.5800    2.0357 O.2       5 UNK        -0.5220 
     39 N          29.7017   28.7475    1.4773 N.am      6 UNK        -0.4450 
     40 CA         30.4645   29.9994    1.4536 C.3       6 UNK         0.0367 
     41 CB         31.7254   29.7895    0.5959 C.3       6 UNK        -0.1929 
     42 C          30.7925   30.5070    2.8731 C.2       6 UNK         0.5070 
     43 O          31.9616   30.6353    3.2367 O.2       6 UNK        -0.5237 
     44 N          29.7459   30.7636    3.6671 N.am      7 UNK        -0.4739 
     45 CA         29.8190   31.1766    5.0733 C.3       7 UNK         0.0276 
     46 CB         28.4166   31.0731    5.6931 C.3       7 UNK        -0.1927 
     47 C          30.4083   32.5818    5.2974 C.2       7 UNK         0.5013 
     48 O          30.8198   32.8896    6.4174 O.2       7 UNK        -0.5193 
     49 N          30.4428   33.4096    4.2446 N.am      8 UNK        -0.4253 
     50 CA         31.0146   34.7561    4.2319 C.3       8 UNK         0.0242 
     51 CB         30.4790   35.5103    3.0006 C.3       8 UNK        -0.2000 
     52 C          32.5540   34.7146    4.2676 C.2       8 UNK         0.4948 
     53 O          33.2003   34.9180    3.2383 O.2       8 UNK        -0.5275 
     54 N          33.1096   34.4091    5.4483 N.am      9 UNK        -0.4246 
     55 CA         34.5316   34.3466    5.8267 C.3       9 UNK         0.0261 
     56 CB         35.2168   35.7152    5.6468 C.3       9 UNK        -0.1959 
     57 C          35.3571   33.2320    5.1550 C.2       9 UNK         0.5033 
     58 O          36.2561   32.6903    5.8007 O.2       9 UNK        -0.5390 
     59 N          35.0415   32.8881    3.8997 N.am      10 UNK        -0.4215 
     60 CA         35.7130   31.8752    3.0752 C.3       10 UNK         0.0240 
     61 CB         35.0665   31.8568    1.6819 C.3       10 UNK        -0.1982 
     62 C          35.7400   30.4586    3.6813 C.2       10 UNK         0.4970 
     63 O          36.6438   29.6871    3.3569 O.2       10 UNK        -0.4916 
     64 N          34.7797   30.1547    4.5632 N.am      11 UNK        -0.4279 
     65 CA         34.7391   28.9426    5.3936 C.3       11 UNK         0.1003 
     66 C          35.9011   28.8139    6.4252 C.2       11 UNK         0.5709 
     67 N          36.6217   29.8800    6.7581 N.am      11 UNK        -0.7358 
     68 O          36.1563   27.7231    6.9295 O.2       11 UNK        -0.4999 
     69 C69        33.3506   28.7862    6.0792 C.3       12 UNK        -0.0954 
     70 S70        32.6660   27.1072    5.9017 S.3       12 UNK        -0.2268 
     71 C71        31.6359   27.3666    4.4306 C.3       12 UNK         0.0203 
     72 H72        26.8061   19.0927    2.6272 H         1 UNK         0.0888 
     73 H73        26.3670   20.5851    3.4605 H         1 UNK         0.0888 
     74 H74        25.2156   19.8140    2.3663 H         1 UNK         0.0888 
     75 H75        28.1624   19.4413    0.8992 H         1 UNK         0.3017 
     76 H76        29.1874   20.2538   -0.8808 H         1 UNK         0.0873 
     77 H77        30.0911   22.5568   -0.7334 H         1 UNK         0.0745 
     78 H78        28.9165   22.9785    0.4865 H         1 UNK         0.0745 
     79 H79        32.4818   22.7913    2.2688 H         1 UNK         0.0705 
     80 H80        31.8076   23.6061    0.8798 H         1 UNK         0.0705 
     81 H81        32.5171   25.3456    2.8380 H         1 UNK         0.1334 
     82 H82        29.1113   26.6188    5.0980 H         1 UNK         0.1417 
     83 H83        28.9091   23.0041    2.8224 H         1 UNK         0.1562 
     84 H84        27.1630   25.1771    5.2783 H         1 UNK         0.0748 
     85 H85        27.1757   23.5823    4.5667 H         1 UNK         0.0748 
     86 H86        27.1540   27.3224    3.8310 H         1 UNK         0.0940 
     87 H87        25.8765   27.5538    2.6748 H         1 UNK         0.0940 
     88 H88        28.6536   26.5118    1.9092 H         1 UNK         0.0703 
     89 H89        26.2614   26.9267    0.3403 H         1 UNK         0.3081 
     90 H90        26.5943   27.0942   -2.2006 H         1 UNK         0.0719 
     91 H91        28.6932   24.9693   -2.8753 H         1 UNK         0.0809 
     92 H92        27.4428   25.5441   -3.9771 H         1 UNK         0.0809 
     93 H93        28.6883   26.6434   -3.4045 H         1 UNK         0.0809 
     94 H94        26.5665   24.1758   -1.8007 H         1 UNK         0.2990 
     95 H95        24.3088   23.9030    0.4014 H         1 UNK         0.0690 
     96 H96        22.1416   23.2844   -0.7109 H         1 UNK         0.0788 
     97 H97        22.5181   24.3887   -2.0342 H         1 UNK         0.0788 
     98 H98        22.2814   25.0074   -0.4099 H         1 UNK         0.0788 
     99 H99        25.2340   22.1947   -0.5582 H         1 UNK         0.2993 
    100 H100       24.7599   20.2665   -2.7221 H         1 UNK         0.0949 
    101 H101       26.7400   21.7998   -4.4912 H         1 UNK         0.0767 
    102 H102       26.5383   20.0481   -4.4838 H         1 UNK         0.0767 
    103 H103       25.2198   21.0825   -5.0033 H         1 UNK         0.0767 
    104 H104       26.4676   19.8873   -1.3538 H         1 UNK         0.3013 
    105 H105       30.2107   27.9090    1.2314 H         1 UNK         0.3121 
    106 H106       29.8564   30.7655    0.9677 H         1 UNK         0.0774 
    107 H107       32.4135   29.0764    1.0522 H         1 UNK         0.0815 
    108 H108       32.2638   30.7278    0.4630 H         1 UNK         0.0815 
    109 H109       31.4732   29.4231   -0.3995 H         1 UNK         0.0815 
    110 H110       28.8205   30.5966    3.2812 H         1 UNK         0.2987 
    111 H111       30.4714   30.4744    5.5948 H         1 UNK         0.0949 
    112 H112       27.7077   31.7391    5.1996 H         1 UNK         0.0806 
    113 H113       28.0265   30.0573    5.6250 H         1 UNK         0.0806 
    114 H114       28.4347   31.3409    6.7507 H         1 UNK         0.0806 
    115 H115       30.1019   33.0541    3.3638 H         1 UNK         0.3010 
    116 H116       30.6753   35.2894    5.1228 H         1 UNK         0.0829 
    117 H117       29.3928   35.5987    3.0307 H         1 UNK         0.0813 
    118 H118       30.8839   36.5223    2.9573 H         1 UNK         0.0813 
    119 H119       30.7494   35.0116    2.0688 H         1 UNK         0.0813 
    120 H120       32.4612   34.1374    6.1814 H         1 UNK         0.3038 
    121 H121       34.5338   34.1211    6.8944 H         1 UNK         0.0769 
    122 H122       35.2651   36.0135    4.5990 H         1 UNK         0.0811 
    123 H123       36.2407   35.6897    6.0224 H         1 UNK         0.0811 
    124 H124       34.6911   36.4973    6.1946 H         1 UNK         0.0811 
    125 H125       34.3142   33.4410    3.4508 H         1 UNK         0.3204 
    126 H126       36.7522   32.1909    2.9642 H         1 UNK         0.0748 
    127 H127       35.5339   31.1100    1.0384 H         1 UNK         0.0771 
    128 H128       34.0048   31.6203    1.7426 H         1 UNK         0.0771 
    129 H129       35.1663   32.8220    1.1848 H         1 UNK         0.0771 
    130 H130       34.0429   30.8279    4.7127 H         1 UNK         0.2980 
    131 H131       34.8773   28.1154    4.6947 H         1 UNK         0.0545 
    132 H132       37.3707   29.7765    7.4237 H         1 UNK         0.3459 
    133 H133       36.4313   30.7916    6.3542 H         1 UNK         0.3459 
    134 H134       32.6295   29.4908    5.6646 H         1 UNK         0.0616 
    135 H135       33.3909   29.0301    7.1427 H         1 UNK         0.0616 
    136 H136       32.2610   27.7192    3.6084 H         1 UNK         0.0634 
    137 H137       30.9179   28.1606    4.6371 H         1 UNK         0.0634 
@<TRIPOS>BOND
     1    1    2 1    
     2    1   72 1    
     3    1   73 1    
     4    1   74 1    
     5    2    3 2    
     6    2    4 am   BACKBONE|DICT|INTERRES
     7    4    5 1    
     8    4   75 1    
     9    5    6 1    
    10    5   35 1    
    11    5   76 1    
    12    6    7 1    
    13    6   77 1    
    14    6   78 1    
    15    7    8 1    
    16    8    9 1    
    17    8   79 1    
    18    8   80 1    
    19    9   10 ar   
    20    9   14 ar   
    21   10   11 ar   
    22   10   81 1    
    23   11   12 ar   
    24   11   71 1    
    25   12   13 ar   
    26   12   82 1    
    27   13   14 ar   
    28   13   15 1    
    29   14   83 1    
    30   15   16 1    
    31   15   84 1    
    32   15   85 1    
    33   16   17 1    
    34   17   18 1    
    35   17   86 1    
    36   17   87 1    
    37   18   19 1    
    38   18   37 1    
    39   18   88 1    
    40   19   20 am   BACKBONE|DICT|INTERRES
    41   19   89 1    
    42   20   21 2    
    43   20   22 1    
    44   22   23 1    
    45   22   24 1    
    46   22   90 1    
    47   23   91 1    
    48   23   92 1    
    49   23   93 1    
    50   24   25 am   BACKBONE|DICT|INTERRES
    51   24   94 1    
    52   25   26 2    
    53   25   27 1    
    54   27   28 1    
    55   27   29 1    
    56   27   95 1    
    57   28   96 1    
    58   28   97 1    
    59   28   98 1    
    60   29   30 am   BACKBONE|DICT|INTERRES
    61   29   99 1    
    62   30   31 2    
    63   30   32 1    
    64   32   33 1    
    65   32   34 1    
    66   32  100 1    
    67   33  101 1    
    68   33  102 1    
    69   33  103 1    
    70   34   35 am   BACKBONE|DICT|INTERRES
    71   34  104 1    
    72   35   36 2    
    73   37   38 2    
    74   37   39 am   BACKBONE|DICT|INTERRES
    75   39   40 1    
    76   39  105 1    
    77   40   41 1    
    78   40   42 1    
    79   40  106 1    
    80   41  107 1    
    81   41  108 1    
    82   41  109 1    
    83   42   43 2    
    84   42   44 am   BACKBONE|DICT|INTERRES
    85   44   45 1    
    86   44  110 1    
    87   45   46 1    
    88   45   47 1    
    89   45  111 1    
    90   46  112 1    
    91   46  113 1    
    92   46  114 1    
    93   47   48 2    
    94   47   49 am   BACKBONE|DICT|INTERRES
    95   49   50 1    
    96   49  115 1    
    97   50   51 1    
    98   50   52 1    
    99   50  116 1    
   100   51  117 1    
   101   51  118 1    
   102   51  119 1    
   103   52   53 2    
   104   52   54 am   BACKBONE|DICT|INTERRES
   105   54   55 1    
   106   54  120 1    
   107   55   56 1    
   108   55   57 1    
   109   55  121 1    
   110   56  122 1    
   111   56  123 1    
   112   56  124 1    
   113   57   58 2    
   114   57   59 am   BACKBONE|DICT|INTERRES
   115   59   60 1    
   116   59  125 1    
   117   60   61 1    
   118   60   62 1    
   119   60  126 1    
   120   61  127 1    
   121   61  128 1    
   122   61  129 1    
   123   62   63 2    
   124   62   64 am   BACKBONE|DICT|INTERRES
   125   64   65 1    
   126   64  130 1    
   127   65   66 1    
   128   65   69 1    
   129   65  131 1    
   130   66   67 am   BACKBONE|DICT|INTERRES
   131   66   68 2    
   132   67  132 1    
   133   67  133 1    
   134   69   70 1    
   135   69  134 1    
   136   69  135 1    
   137   70   71 1    
   138   71  136 1    
   139   71  137 1    
@<TRIPOS>SUBSTRUCTURE
     1 UNK         1 GROUP             0       ****    0 ROOT    
