@<TRIPOS>MOLECULE
3R136
137   139    1
SMALL
USER_CHARGES


@<TRIPOS>ATOM
      1 CA         24.3519   21.1621    0.7092 C.3       0 UNK        -0.1979 
      2 C          25.4542   22.1141    0.2723 C.2       0 UNK         0.4864 
      3 O          25.1804   23.0858   -0.4366 O.2       0 UNK        -0.5359 
      4 N          26.7030   21.8531    0.6898 N.am      1 UNK        -0.4318 
      5 CA         27.8553   22.7008    0.3682 C.3       1 UNK         0.0824 
      6 C6         29.2155   22.0066    0.6133 C.3       12 UNK        -0.0944 
      7 S7         29.6762   21.7694    2.3653 S.3       12 UNK        -0.2672 
      8 C8         31.4952   21.8459    2.2708 C.3       12 UNK         0.0333 
      9 C9         32.0255   23.2694    2.1327 C.ar      12 UNK        -0.0807 
     10 C10        32.2807   24.0360    3.2744 C.ar      12 UNK        -0.0894 
     11 C11        32.8388   25.3138    3.1631 C.ar      12 UNK        -0.0804 
     12 C12        33.1168   25.8361    1.8962 C.ar      12 UNK        -0.0824 
     13 C13        32.8565   25.0858    0.7455 C.ar      12 UNK        -0.0762 
     14 C14        32.3204   23.8003    0.8719 C.ar      12 UNK        -0.0782 
     15 C15        33.1938   25.6434   -0.6331 C.3       12 UNK         0.0230 
     16 S16        32.2453   27.1453   -1.0404 S.3       12 UNK        -0.2608 
     17 C17        30.5272   26.5444   -0.9028 C.3       12 UNK        -0.0989 
     18 CA         29.4945   27.3919   -1.6992 C.3       5 UNK         0.0716 
     19 N          28.2896   26.6038   -1.9584 N.am      5 UNK        -0.4135 
     20 C          27.4794   26.7165   -3.0178 C.2       4 UNK         0.5031 
     21 O          27.7117   27.4378   -3.9893 O.2       4 UNK        -0.5229 
     22 CA         26.1862   25.8780   -2.9881 C.3       4 UNK         0.0329 
     23 CB         26.4666   24.4333   -3.4319 C.3       4 UNK        -0.2001 
     24 N          25.5411   25.8692   -1.6703 N.am      4 UNK        -0.4303 
     25 C          24.9083   26.9262   -1.1334 C.2       3 UNK         0.5044 
     26 O          24.7178   27.9877   -1.7271 O.2       3 UNK        -0.5152 
     27 CA         24.4308   26.7846    0.3179 C.3       3 UNK         0.0319 
     28 CB         23.1343   25.9547    0.3981 C.3       3 UNK        -0.2001 
     29 N          25.5058   26.1919    1.1069 N.am      3 UNK        -0.4354 
     30 C          25.5857   26.0552    2.4323 C.2       2 UNK         0.4964 
     31 O          24.7042   26.4119    3.2150 O.2       2 UNK        -0.5047 
     32 CA         26.8861   25.4062    2.9597 C.3       2 UNK         0.0288 
     33 CB         26.8435   25.1204    4.4719 C.3       2 UNK        -0.2113 
     34 N          27.2211   24.1679    2.2478 N.am      2 UNK        -0.4145 
     35 C          27.7476   24.0955    1.0159 C.2       1 UNK         0.5006 
     36 O          28.0384   25.0890    0.3513 O.2       1 UNK        -0.5103 
     37 C          29.1175   28.7029   -0.9690 C.2       5 UNK         0.5055 
     38 O          27.9400   28.9729   -0.7200 O.2       5 UNK        -0.5220 
     39 N          30.1398   29.4876   -0.6054 N.am      6 UNK        -0.4450 
     40 CA         30.0377   30.7419    0.1494 C.3       6 UNK         0.0367 
     41 CB         31.3881   31.4710    0.0701 C.3       6 UNK        -0.1929 
     42 C          29.5921   30.5684    1.6177 C.2       6 UNK         0.5070 
     43 O          29.2926   31.5682    2.2727 O.2       6 UNK        -0.5237 
     44 N          29.5479   29.3192    2.1069 N.am      7 UNK        -0.4739 
     45 CA         29.0598   28.8975    3.4231 C.3       7 UNK         0.0276 
     46 CB         27.5291   29.1017    3.5124 C.3       7 UNK        -0.1927 
     47 C          29.8578   29.5618    4.5580 C.2       7 UNK         0.5013 
     48 O          31.0754   29.3941    4.5978 O.2       7 UNK        -0.5193 
     49 N          29.1813   30.3160    5.4354 N.am      8 UNK        -0.4253 
     50 CA         29.7569   31.0143    6.5902 C.3       8 UNK         0.0242 
     51 CB         28.6170   31.6293    7.4193 C.3       8 UNK        -0.2000 
     52 C          30.8131   32.0846    6.2498 C.2       8 UNK         0.4948 
     53 O          31.5786   32.4629    7.1374 O.2       8 UNK        -0.5275 
     54 N          30.8525   32.5522    4.9930 N.am      9 UNK        -0.4246 
     55 CA         31.8927   33.4526    4.4878 C.3       9 UNK         0.0261 
     56 CB         31.3431   34.2397    3.2876 C.3       9 UNK        -0.1959 
     57 C          33.2040   32.7241    4.1261 C.2       9 UNK         0.5033 
     58 O          34.2100   33.3983    3.8978 O.2       9 UNK        -0.5390 
     59 N          33.1861   31.3855    4.0824 N.am      10 UNK        -0.4215 
     60 CA         34.3472   30.5192    3.8898 C.3       10 UNK         0.0240 
     61 CB         34.0949   29.6302    2.6575 C.3       10 UNK        -0.1982 
     62 C          34.5756   29.6756    5.1556 C.2       10 UNK         0.4970 
     63 O          33.7774   29.7341    6.0936 O.2       10 UNK        -0.4916 
     64 N          35.6720   28.9063    5.1587 N.am      11 UNK        -0.4279 
     65 CA         36.0683   27.9767    6.2348 C.3       11 UNK         0.1003 
     66 C          36.4521   28.6595    7.5852 C.2       11 UNK         0.5709 
     67 N          36.7500   29.9535    7.6096 N.am      11 UNK        -0.7358 
     68 O          36.5210   28.0043    8.6229 O.2       11 UNK        -0.4999 
     69 C69        35.0667   26.7959    6.4148 C.3       12 UNK        -0.0954 
     70 S70        34.9038   25.7822    4.9075 S.3       12 UNK        -0.2268 
     71 C71        33.1844   26.1105    4.4117 C.3       12 UNK         0.0203 
     72 H72        23.5954   21.7024    1.2775 H         1 UNK         0.0888 
     73 H73        23.8721   20.7202   -0.1636 H         1 UNK         0.0888 
     74 H74        24.7342   20.3543    1.3329 H         1 UNK         0.0888 
     75 H75        26.8890   21.0451    1.2677 H         1 UNK         0.3017 
     76 H76        27.8047   22.8733   -0.7088 H         1 UNK         0.0873 
     77 H77        29.9899   22.5846    0.1125 H         1 UNK         0.0745 
     78 H78        29.2258   21.0308    0.1251 H         1 UNK         0.0745 
     79 H79        31.8428   21.2263    1.4426 H         1 UNK         0.0705 
     80 H80        31.9065   21.3929    3.1741 H         1 UNK         0.0705 
     81 H81        32.0747   23.6243    4.2531 H         1 UNK         0.1334 
     82 H82        33.5552   26.8196    1.8033 H         1 UNK         0.1417 
     83 H83        32.1528   23.2042   -0.0142 H         1 UNK         0.1562 
     84 H84        33.0216   24.8969   -1.4100 H         1 UNK         0.0748 
     85 H85        34.2581   25.8800   -0.6688 H         1 UNK         0.0748 
     86 H86        30.2595   26.4750    0.1535 H         1 UNK         0.0940 
     87 H87        30.5160   25.5178   -1.2739 H         1 UNK         0.0940 
     88 H88        29.9365   27.6668   -2.6593 H         1 UNK         0.0703 
     89 H89        28.0112   26.0017   -1.1878 H         1 UNK         0.3081 
     90 H90        25.4884   26.3196   -3.7028 H         1 UNK         0.0719 
     91 H91        26.9029   24.4105   -4.4314 H         1 UNK         0.0809 
     92 H92        27.1629   23.9309   -2.7606 H         1 UNK         0.0809 
     93 H93        25.5501   23.8435   -3.4642 H         1 UNK         0.0809 
     94 H94        25.5535   24.9912   -1.1591 H         1 UNK         0.2990 
     95 H95        24.2365   27.7854    0.7088 H         1 UNK         0.0690 
     96 H96        22.7332   25.9332    1.4112 H         1 UNK         0.0788 
     97 H97        23.2920   24.9239    0.0804 H         1 UNK         0.0788 
     98 H98        22.3610   26.3795   -0.2432 H         1 UNK         0.0788 
     99 H99        26.3235   25.9037    0.5783 H         1 UNK         0.2993 
    100 H100       27.6887   26.1242    2.7826 H         1 UNK         0.0949 
    101 H101       26.6611   26.0343    5.0389 H         1 UNK         0.0767 
    102 H102       26.0525   24.4137    4.7261 H         1 UNK         0.0767 
    103 H103       27.7895   24.7076    4.8235 H         1 UNK         0.0767 
    104 H104       26.9728   23.3029    2.7054 H         1 UNK         0.3013 
    105 H105       31.0749   29.1647   -0.8223 H         1 UNK         0.3121 
    106 H106       29.2848   31.3631   -0.3401 H         1 UNK         0.0774 
    107 H107       31.3243   32.4633    0.5145 H         1 UNK         0.0815 
    108 H108       32.1700   30.9250    0.5965 H         1 UNK         0.0815 
    109 H109       31.7085   31.6070   -0.9629 H         1 UNK         0.0815 
    110 H110       29.8686   28.5787    1.5016 H         1 UNK         0.2987 
    111 H111       29.2625   27.8286    3.5018 H         1 UNK         0.0949 
    112 H112       27.1205   28.6598    4.4223 H         1 UNK         0.0806 
    113 H113       27.0246   28.6275    2.6712 H         1 UNK         0.0806 
    114 H114       27.2487   30.1556    3.4941 H         1 UNK         0.0806 
    115 H115       28.1862   30.4189    5.2993 H         1 UNK         0.3010 
    116 H116       30.2596   30.2631    7.2032 H         1 UNK         0.0829 
    117 H117       27.9157   30.8672    7.7598 H         1 UNK         0.0813 
    118 H118       29.0050   32.1280    8.3088 H         1 UNK         0.0813 
    119 H119       28.0582   32.3717    6.8480 H         1 UNK         0.0813 
    120 H120       30.1906   32.1939    4.3138 H         1 UNK         0.3038 
    121 H121       32.1386   34.1754    5.2689 H         1 UNK         0.0769 
    122 H122       32.0912   34.9286    2.8929 H         1 UNK         0.0811 
    123 H123       30.4734   34.8335    3.5689 H         1 UNK         0.0811 
    124 H124       31.0463   33.5794    2.4754 H         1 UNK         0.0811 
    125 H125       32.3430   30.8915    4.3663 H         1 UNK         0.3204 
    126 H126       35.2500   31.1097    3.7215 H         1 UNK         0.0748 
    127 H127       34.8818   28.8872    2.5236 H         1 UNK         0.0771 
    128 H128       33.1466   29.0968    2.7319 H         1 UNK         0.0771 
    129 H129       34.0701   30.2288    1.7479 H         1 UNK         0.0771 
    130 H130       36.2900   28.9323    4.3610 H         1 UNK         0.2980 
    131 H131       37.0077   27.5399    5.8945 H         1 UNK         0.0545 
    132 H132       37.0088   30.3833    8.4836 H         1 UNK         0.3459 
    133 H133       36.7092   30.5041    6.7675 H         1 UNK         0.3459 
    134 H134       35.4062   26.1224    7.2033 H         1 UNK         0.0616 
    135 H135       34.0876   27.1573    6.7322 H         1 UNK         0.0616 
    136 H136       32.5118   25.8448    5.2287 H         1 UNK         0.0634 
    137 H137       33.0484   27.1774    4.2322 H         1 UNK         0.0634 
@<TRIPOS>BOND
     1    1    2 1    
     2    1   72 1    
     3    1   73 1    
     4    1   74 1    
     5    2    3 2    
     6    2    4 am   BACKBONE|DICT|INTERRES
     7    4    5 1    
     8    4   75 1    
     9    5    6 1    
    10    5   35 1    
    11    5   76 1    
    12    6    7 1    
    13    6   77 1    
    14    6   78 1    
    15    7    8 1    
    16    8    9 1    
    17    8   79 1    
    18    8   80 1    
    19    9   10 ar   
    20    9   14 ar   
    21   10   11 ar   
    22   10   81 1    
    23   11   12 ar   
    24   11   71 1    
    25   12   13 ar   
    26   12   82 1    
    27   13   14 ar   
    28   13   15 1    
    29   14   83 1    
    30   15   16 1    
    31   15   84 1    
    32   15   85 1    
    33   16   17 1    
    34   17   18 1    
    35   17   86 1    
    36   17   87 1    
    37   18   19 1    
    38   18   37 1    
    39   18   88 1    
    40   19   20 am   BACKBONE|DICT|INTERRES
    41   19   89 1    
    42   20   21 2    
    43   20   22 1    
    44   22   23 1    
    45   22   24 1    
    46   22   90 1    
    47   23   91 1    
    48   23   92 1    
    49   23   93 1    
    50   24   25 am   BACKBONE|DICT|INTERRES
    51   24   94 1    
    52   25   26 2    
    53   25   27 1    
    54   27   28 1    
    55   27   29 1    
    56   27   95 1    
    57   28   96 1    
    58   28   97 1    
    59   28   98 1    
    60   29   30 am   BACKBONE|DICT|INTERRES
    61   29   99 1    
    62   30   31 2    
    63   30   32 1    
    64   32   33 1    
    65   32   34 1    
    66   32  100 1    
    67   33  101 1    
    68   33  102 1    
    69   33  103 1    
    70   34   35 am   BACKBONE|DICT|INTERRES
    71   34  104 1    
    72   35   36 2    
    73   37   38 2    
    74   37   39 am   BACKBONE|DICT|INTERRES
    75   39   40 1    
    76   39  105 1    
    77   40   41 1    
    78   40   42 1    
    79   40  106 1    
    80   41  107 1    
    81   41  108 1    
    82   41  109 1    
    83   42   43 2    
    84   42   44 am   BACKBONE|DICT|INTERRES
    85   44   45 1    
    86   44  110 1    
    87   45   46 1    
    88   45   47 1    
    89   45  111 1    
    90   46  112 1    
    91   46  113 1    
    92   46  114 1    
    93   47   48 2    
    94   47   49 am   BACKBONE|DICT|INTERRES
    95   49   50 1    
    96   49  115 1    
    97   50   51 1    
    98   50   52 1    
    99   50  116 1    
   100   51  117 1    
   101   51  118 1    
   102   51  119 1    
   103   52   53 2    
   104   52   54 am   BACKBONE|DICT|INTERRES
   105   54   55 1    
   106   54  120 1    
   107   55   56 1    
   108   55   57 1    
   109   55  121 1    
   110   56  122 1    
   111   56  123 1    
   112   56  124 1    
   113   57   58 2    
   114   57   59 am   BACKBONE|DICT|INTERRES
   115   59   60 1    
   116   59  125 1    
   117   60   61 1    
   118   60   62 1    
   119   60  126 1    
   120   61  127 1    
   121   61  128 1    
   122   61  129 1    
   123   62   63 2    
   124   62   64 am   BACKBONE|DICT|INTERRES
   125   64   65 1    
   126   64  130 1    
   127   65   66 1    
   128   65   69 1    
   129   65  131 1    
   130   66   67 am   BACKBONE|DICT|INTERRES
   131   66   68 2    
   132   67  132 1    
   133   67  133 1    
   134   69   70 1    
   135   69  134 1    
   136   69  135 1    
   137   70   71 1    
   138   71  136 1    
   139   71  137 1    
@<TRIPOS>SUBSTRUCTURE
     1 UNK         1 GROUP             0       ****    0 ROOT    
