@<TRIPOS>MOLECULE
3R136
137   139    1
SMALL
USER_CHARGES


@<TRIPOS>ATOM
      1 CA         26.1956   27.0135    3.9019 C.3       0 UNK        -0.1979 
      2 C          26.6126   25.5665    3.6883 C.2       0 UNK         0.4864 
      3 O          26.2839   24.7066    4.5073 O.2       0 UNK        -0.5359 
      4 N          27.3191   25.2862    2.5877 N.am      1 UNK        -0.4318 
      5 CA         27.7562   23.9465    2.1937 C.3       1 UNK         0.0824 
      6 C6         29.1204   23.9733    1.4602 C.3       12 UNK        -0.0944 
      7 S7         30.4899   24.2638    2.6288 S.3       12 UNK        -0.2672 
      8 C8         31.9452   23.9354    1.5845 C.3       12 UNK         0.0333 
      9 C9         32.4957   25.2235    0.9931 C.ar      12 UNK        -0.0807 
     10 C10        33.5120   25.9179    1.6543 C.ar      12 UNK        -0.0894 
     11 C11        34.0126   27.1144    1.1330 C.ar      12 UNK        -0.0804 
     12 C12        33.4729   27.6235   -0.0536 C.ar      12 UNK        -0.0824 
     13 C13        32.4684   26.9277   -0.7366 C.ar      12 UNK        -0.0762 
     14 C14        31.9989   25.7177   -0.2150 C.ar      12 UNK        -0.0782 
     15 C15        31.9235   27.4638   -2.0557 C.3       12 UNK         0.0230 
     16 S16        30.3258   28.3193   -1.8557 S.3       12 UNK        -0.2608 
     17 C17        29.1719   26.9058   -1.8475 C.3       12 UNK        -0.0989 
     18 CA         27.6791   27.3086   -1.8311 C.3       5 UNK         0.0716 
     19 N          26.8206   26.1516   -2.0316 N.am      5 UNK        -0.4135 
     20 C          26.3835   25.6803   -3.2027 C.2       4 UNK         0.5031 
     21 O          26.7145   26.1401   -4.2962 O.2       4 UNK        -0.5229 
     22 CA         25.4000   24.4997   -3.1442 C.3       4 UNK         0.0329 
     23 CB         26.1435   23.1687   -3.3417 C.3       4 UNK        -0.2001 
     24 N          24.6724   24.4596   -1.8732 N.am      4 UNK        -0.4303 
     25 C          23.5774   25.1831   -1.5941 C.2       3 UNK         0.5044 
     26 O          23.0352   25.9247   -2.4149 O.2       3 UNK        -0.5152 
     27 CA         23.0024   25.1081   -0.1607 C.3       3 UNK         0.0319 
     28 CB         21.4648   24.9748   -0.1569 C.3       3 UNK        -0.2001 
     29 N          23.6271   24.0896    0.6956 N.am      3 UNK        -0.4354 
     30 C          23.6116   22.7565    0.5373 C.2       2 UNK         0.4964 
     31 O          22.9475   22.1774   -0.3233 O.2       2 UNK        -0.5047 
     32 CA         24.5276   21.9367    1.4722 C.3       2 UNK         0.0288 
     33 CB         25.0230   20.6368    0.8021 C.3       2 UNK        -0.2113 
     34 N          25.6727   22.6830    2.0210 N.am      2 UNK        -0.4145 
     35 C          26.6415   23.3189    1.3412 C.2       1 UNK         0.5006 
     36 O          26.6465   23.4650    0.1163 O.2       1 UNK        -0.5103 
     37 C          27.2658   27.9101   -0.4818 C.2       5 UNK         0.5055 
     38 O          26.9880   27.1558    0.4555 O.2       5 UNK        -0.5220 
     39 N          27.2634   29.2451   -0.3948 N.am      6 UNK        -0.4450 
     40 CA         27.0211   29.9861    0.8463 C.3       6 UNK         0.0367 
     41 CB         26.6898   31.4479    0.5044 C.3       6 UNK        -0.1929 
     42 C          28.2062   29.9199    1.8286 C.2       6 UNK         0.5070 
     43 O          28.0031   30.1517    3.0209 O.2       6 UNK        -0.5237 
     44 N          29.4056   29.6077    1.3117 N.am      7 UNK        -0.4739 
     45 CA         30.6913   29.5518    2.0142 C.3       7 UNK         0.0276 
     46 CB         30.7010   28.3856    3.0292 C.3       7 UNK        -0.1927 
     47 C          31.0823   30.9245    2.6054 C.2       7 UNK         0.5013 
     48 O          30.7342   31.9570    2.0259 O.2       7 UNK        -0.5193 
     49 N          31.8136   30.9237    3.7226 N.am      8 UNK        -0.4253 
     50 CA         32.2774   32.0978    4.4547 C.3       8 UNK         0.0242 
     51 CB         33.4640   32.7530    3.7188 C.3       8 UNK        -0.2000 
     52 C          32.6947   31.6427    5.8561 C.2       8 UNK         0.4948 
     53 O          32.8976   30.4458    6.0725 O.2       8 UNK        -0.5275 
     54 N          32.8750   32.6013    6.7742 N.am      9 UNK        -0.4246 
     55 CA         33.3379   32.3581    8.1482 C.3       9 UNK         0.0261 
     56 CB         33.2586   33.6679    8.9496 C.3       9 UNK        -0.1959 
     57 C          34.7555   31.7563    8.2380 C.2       9 UNK         0.5033 
     58 O          35.0712   31.1002    9.2312 O.2       9 UNK        -0.5390 
     59 N          35.5752   31.9825    7.2024 N.am      10 UNK        -0.4215 
     60 CA         36.9173   31.4203    7.0519 C.3       10 UNK         0.0240 
     61 CB         37.7104   32.2944    6.0654 C.3       10 UNK        -0.1982 
     62 C          36.9269   29.9502    6.5885 C.2       10 UNK         0.4970 
     63 O          37.9663   29.3022    6.7220 O.2       10 UNK        -0.4916 
     64 N          35.8133   29.4523    6.0314 N.am      11 UNK        -0.4279 
     65 CA         35.6857   28.0738    5.5354 C.3       11 UNK         0.1003 
     66 C          35.6148   27.0352    6.6879 C.2       11 UNK         0.5709 
     67 N          36.1235   25.8303    6.4668 N.am      11 UNK        -0.7358 
     68 O          35.0737   27.2945    7.7614 O.2       11 UNK        -0.4999 
     69 C69        34.4815   27.9123    4.5720 C.3       12 UNK        -0.0954 
     70 S70        34.6065   28.9913    3.1036 S.3       12 UNK        -0.2268 
     71 C71        35.1682   27.8315    1.8201 C.3       12 UNK         0.0203 
     72 H72        26.5404   27.6573    3.0940 H         1 UNK         0.0888 
     73 H73        25.1101   27.0893    3.9561 H         1 UNK         0.0888 
     74 H74        26.6134   27.3912    4.8345 H         1 UNK         0.0888 
     75 H75        27.4557   26.0154    1.8909 H         1 UNK         0.3017 
     76 H76        27.8762   23.3202    3.0810 H         1 UNK         0.0873 
     77 H77        29.3044   23.0201    0.9604 H         1 UNK         0.0745 
     78 H78        29.1329   24.7392    0.6851 H         1 UNK         0.0745 
     79 H79        32.7090   23.4516    2.1952 H         1 UNK         0.0705 
     80 H80        31.6982   23.2251    0.7941 H         1 UNK         0.0705 
     81 H81        33.9191   25.5142    2.5698 H         1 UNK         0.1334 
     82 H82        33.8541   28.5510   -0.4590 H         1 UNK         0.1417 
     83 H83        31.2458   25.1541   -0.7457 H         1 UNK         0.1562 
     84 H84        31.8241   26.6520   -2.7778 H         1 UNK         0.0748 
     85 H85        32.6352   28.1655   -2.4936 H         1 UNK         0.0748 
     86 H86        29.3876   26.2735   -0.9889 H         1 UNK         0.0940 
     87 H87        29.3782   26.3020   -2.7330 H         1 UNK         0.0940 
     88 H88        27.4838   28.0377   -2.6208 H         1 UNK         0.0703 
     89 H89        26.4938   25.7254   -1.1731 H         1 UNK         0.3081 
     90 H90        24.6860   24.6165   -3.9623 H         1 UNK         0.0719 
     91 H91        26.8902   23.0019   -2.5643 H         1 UNK         0.0809 
     92 H92        25.4540   22.3243   -3.3300 H         1 UNK         0.0809 
     93 H93        26.6624   23.1510   -4.3011 H         1 UNK         0.0809 
     94 H94        25.0905   23.9015   -1.1357 H         1 UNK         0.2990 
     95 H95        23.2463   26.0663    0.3006 H         1 UNK         0.0690 
     96 H96        21.0714   24.9412    0.8590 H         1 UNK         0.0788 
     97 H97        21.1324   24.0756   -0.6763 H         1 UNK         0.0788 
     98 H98        20.9971   25.8250   -0.6549 H         1 UNK         0.0788 
     99 H99        24.2106   24.4527    1.4361 H         1 UNK         0.2993 
    100 H100       23.9067   21.6556    2.3243 H         1 UNK         0.0949 
    101 H101       25.6494   20.0553    1.4786 H         1 UNK         0.0767 
    102 H102       24.1876   19.9984    0.5114 H         1 UNK         0.0767 
    103 H103       25.6036   20.8437   -0.0980 H         1 UNK         0.0767 
    104 H104       25.7313   22.7003    3.0318 H         1 UNK         0.3013 
    105 H105       27.5095   29.7899   -1.2096 H         1 UNK         0.3121 
    106 H106       26.1545   29.5479    1.3465 H         1 UNK         0.0774 
    107 H107       26.4698   32.0180    1.4081 H         1 UNK         0.0815 
    108 H108       27.5216   31.9440    0.0027 H         1 UNK         0.0815 
    109 H109       25.8145   31.5176   -0.1416 H         1 UNK         0.0815 
    110 H110       29.4571   29.4551    0.3139 H         1 UNK         0.2987 
    111 H111       31.4412   29.3291    1.2536 H         1 UNK         0.0949 
    112 H112       30.0615   28.5850    3.8896 H         1 UNK         0.0806 
    113 H113       30.3545   27.4618    2.5648 H         1 UNK         0.0806 
    114 H114       31.7060   28.1863    3.3988 H         1 UNK         0.0806 
    115 H115       32.0618   30.0472    4.1665 H         1 UNK         0.3010 
    116 H116       31.4536   32.8086    4.5479 H         1 UNK         0.0829 
    117 H117       33.1839   33.0755    2.7160 H         1 UNK         0.0813 
    118 H118       33.8205   33.6374    4.2478 H         1 UNK         0.0813 
    119 H119       34.3061   32.0663    3.6224 H         1 UNK         0.0813 
    120 H120       32.6892   33.5620    6.5218 H         1 UNK         0.3038 
    121 H121       32.6548   31.6374    8.6030 H         1 UNK         0.0769 
    122 H122       32.2406   34.0569    8.9765 H         1 UNK         0.0811 
    123 H123       33.9040   34.4398    8.5283 H         1 UNK         0.0811 
    124 H124       33.5702   33.5121    9.9835 H         1 UNK         0.0811 
    125 H125       35.2318   32.5495    6.4416 H         1 UNK         0.3204 
    126 H126       37.4200   31.4588    8.0209 H         1 UNK         0.0748 
    127 H127       38.7329   31.9301    5.9547 H         1 UNK         0.0771 
    128 H128       37.2571   32.2976    5.0731 H         1 UNK         0.0771 
    129 H129       37.7733   33.3266    6.4108 H         1 UNK         0.0771 
    130 H130       34.9645   30.0037    6.0122 H         1 UNK         0.2980 
    131 H131       36.5892   27.8563    4.9618 H         1 UNK         0.0545 
    132 H132       36.0747   25.1379    7.1976 H         1 UNK         0.3459 
    133 H133       36.5636   25.6013    5.5894 H         1 UNK         0.3459 
    134 H134       34.3958   26.8763    4.2480 H         1 UNK         0.0616 
    135 H135       33.5473   28.1358    5.0876 H         1 UNK         0.0616 
    136 H136       35.8627   27.1093    2.2519 H         1 UNK         0.0634 
    137 H137       35.7425   28.3920    1.0810 H         1 UNK         0.0634 
@<TRIPOS>BOND
     1    1    2 1    
     2    1   72 1    
     3    1   73 1    
     4    1   74 1    
     5    2    3 2    
     6    2    4 am   BACKBONE|DICT|INTERRES
     7    4    5 1    
     8    4   75 1    
     9    5    6 1    
    10    5   35 1    
    11    5   76 1    
    12    6    7 1    
    13    6   77 1    
    14    6   78 1    
    15    7    8 1    
    16    8    9 1    
    17    8   79 1    
    18    8   80 1    
    19    9   10 ar   
    20    9   14 ar   
    21   10   11 ar   
    22   10   81 1    
    23   11   12 ar   
    24   11   71 1    
    25   12   13 ar   
    26   12   82 1    
    27   13   14 ar   
    28   13   15 1    
    29   14   83 1    
    30   15   16 1    
    31   15   84 1    
    32   15   85 1    
    33   16   17 1    
    34   17   18 1    
    35   17   86 1    
    36   17   87 1    
    37   18   19 1    
    38   18   37 1    
    39   18   88 1    
    40   19   20 am   BACKBONE|DICT|INTERRES
    41   19   89 1    
    42   20   21 2    
    43   20   22 1    
    44   22   23 1    
    45   22   24 1    
    46   22   90 1    
    47   23   91 1    
    48   23   92 1    
    49   23   93 1    
    50   24   25 am   BACKBONE|DICT|INTERRES
    51   24   94 1    
    52   25   26 2    
    53   25   27 1    
    54   27   28 1    
    55   27   29 1    
    56   27   95 1    
    57   28   96 1    
    58   28   97 1    
    59   28   98 1    
    60   29   30 am   BACKBONE|DICT|INTERRES
    61   29   99 1    
    62   30   31 2    
    63   30   32 1    
    64   32   33 1    
    65   32   34 1    
    66   32  100 1    
    67   33  101 1    
    68   33  102 1    
    69   33  103 1    
    70   34   35 am   BACKBONE|DICT|INTERRES
    71   34  104 1    
    72   35   36 2    
    73   37   38 2    
    74   37   39 am   BACKBONE|DICT|INTERRES
    75   39   40 1    
    76   39  105 1    
    77   40   41 1    
    78   40   42 1    
    79   40  106 1    
    80   41  107 1    
    81   41  108 1    
    82   41  109 1    
    83   42   43 2    
    84   42   44 am   BACKBONE|DICT|INTERRES
    85   44   45 1    
    86   44  110 1    
    87   45   46 1    
    88   45   47 1    
    89   45  111 1    
    90   46  112 1    
    91   46  113 1    
    92   46  114 1    
    93   47   48 2    
    94   47   49 am   BACKBONE|DICT|INTERRES
    95   49   50 1    
    96   49  115 1    
    97   50   51 1    
    98   50   52 1    
    99   50  116 1    
   100   51  117 1    
   101   51  118 1    
   102   51  119 1    
   103   52   53 2    
   104   52   54 am   BACKBONE|DICT|INTERRES
   105   54   55 1    
   106   54  120 1    
   107   55   56 1    
   108   55   57 1    
   109   55  121 1    
   110   56  122 1    
   111   56  123 1    
   112   56  124 1    
   113   57   58 2    
   114   57   59 am   BACKBONE|DICT|INTERRES
   115   59   60 1    
   116   59  125 1    
   117   60   61 1    
   118   60   62 1    
   119   60  126 1    
   120   61  127 1    
   121   61  128 1    
   122   61  129 1    
   123   62   63 2    
   124   62   64 am   BACKBONE|DICT|INTERRES
   125   64   65 1    
   126   64  130 1    
   127   65   66 1    
   128   65   69 1    
   129   65  131 1    
   130   66   67 am   BACKBONE|DICT|INTERRES
   131   66   68 2    
   132   67  132 1    
   133   67  133 1    
   134   69   70 1    
   135   69  134 1    
   136   69  135 1    
   137   70   71 1    
   138   71  136 1    
   139   71  137 1    
@<TRIPOS>SUBSTRUCTURE
     1 UNK         1 GROUP             0       ****    0 ROOT    
