@<TRIPOS>MOLECULE
3R136
137   139    1
SMALL
USER_CHARGES


@<TRIPOS>ATOM
      1 CA         33.7403   23.7012   -1.7832 C.3       0 UNK        -0.1979 
      2 C          33.1706   25.1111   -1.7322 C.2       0 UNK         0.4864 
      3 O          33.9313   26.0790   -1.7637 O.2       0 UNK        -0.5359 
      4 N          31.8415   25.2303   -1.6562 N.am      1 UNK        -0.4318 
      5 CA         31.0963   26.4869   -1.6168 C.3       1 UNK         0.0824 
      6 C6         31.2255   27.2395   -0.2599 C.3       12 UNK        -0.0944 
      7 S7         30.3362   26.5120    1.1627 S.3       12 UNK        -0.2672 
      8 C8         31.5443   25.2851    1.7519 C.3       12 UNK         0.0333 
      9 C9         31.0904   24.6119    3.0385 C.ar      12 UNK        -0.0807 
     10 C10        31.8681   24.7062    4.1972 C.ar      12 UNK        -0.0894 
     11 C11        31.4703   24.0680    5.3803 C.ar      12 UNK        -0.0804 
     12 C12        30.2709   23.3491    5.3891 C.ar      12 UNK        -0.0824 
     13 C13        29.4819   23.2459    4.2394 C.ar      12 UNK        -0.0762 
     14 C14        29.9090   23.8650    3.0612 C.ar      12 UNK        -0.0782 
     15 C15        28.1822   22.4459    4.2853 C.3       12 UNK         0.0230 
     16 S16        26.7525   23.2969    3.5313 S.3       12 UNK        -0.2608 
     17 C17        26.7733   24.9265    4.3556 C.3       12 UNK        -0.0989 
     18 CA         26.9091   26.0734    3.3139 C.3       5 UNK         0.0716 
     19 N          25.7554   26.1921    2.4099 N.am      5 UNK        -0.4135 
     20 C          24.4635   26.3787    2.7318 C.2       4 UNK         0.5031 
     21 O          24.0307   26.4200    3.8849 O.2       4 UNK        -0.5229 
     22 CA         23.4595   26.5575    1.5737 C.3       4 UNK         0.0329 
     23 CB         23.1190   28.0457    1.3877 C.3       4 UNK        -0.2001 
     24 N          23.9285   26.0172    0.2972 N.am      4 UNK        -0.4303 
     25 C          24.0813   24.7147    0.0223 C.2       3 UNK         0.5044 
     26 O          23.7184   23.8106    0.7753 O.2       3 UNK        -0.5152 
     27 CA         24.7690   24.3529   -1.3097 C.3       3 UNK         0.0319 
     28 CB         23.7310   23.8601   -2.3315 C.3       3 UNK        -0.2001 
     29 N          25.5663   25.4279   -1.9196 N.am      3 UNK        -0.4354 
     30 C          26.6181   26.0394   -1.3559 C.2       2 UNK         0.4964 
     31 O          26.9875   25.8423   -0.1965 O.2       2 UNK        -0.5047 
     32 CA         27.3306   27.0985   -2.2153 C.3       2 UNK         0.0288 
     33 CB         26.6773   28.4752   -2.0064 C.3       2 UNK        -0.2113 
     34 N          28.7588   27.1975   -1.9036 N.am      2 UNK        -0.4145 
     35 C          29.6517   26.2138   -2.0827 C.2       1 UNK         0.5006 
     36 O          29.3761   25.1301   -2.6095 O.2       1 UNK        -0.5103 
     37 C          27.2824   27.4192    3.9729 C.2       5 UNK         0.5055 
     38 O          26.4659   28.3424    4.0269 O.2       5 UNK        -0.5220 
     39 N          28.5322   27.5012    4.4591 N.am      6 UNK        -0.4450 
     40 CA         29.1480   28.6684    5.1079 C.3       6 UNK         0.0367 
     41 CB         28.4955   28.9385    6.4805 C.3       6 UNK        -0.1929 
     42 C          29.1652   29.9071    4.1891 C.2       6 UNK         0.5070 
     43 O          28.6866   30.9761    4.5746 O.2       6 UNK        -0.5237 
     44 N          29.6810   29.7222    2.9699 N.am      7 UNK        -0.4739 
     45 CA         29.7054   30.7138    1.8970 C.3       7 UNK         0.0276 
     46 CB         28.6483   30.3206    0.8497 C.3       7 UNK        -0.1927 
     47 C          31.1066   30.7719    1.2766 C.2       7 UNK         0.5013 
     48 O          31.9331   29.8981    1.5405 O.2       7 UNK        -0.5193 
     49 N          31.3605   31.8094    0.4643 N.am      8 UNK        -0.4253 
     50 CA         32.6094   32.0506   -0.2815 C.3       8 UNK         0.0242 
     51 CB         32.7493   31.0221   -1.4256 C.3       8 UNK        -0.2000 
     52 C          33.8715   32.1109    0.6094 C.2       8 UNK         0.4948 
     53 O          34.9562   31.7318    0.1652 O.2       8 UNK        -0.5275 
     54 N          33.6889   32.5591    1.8616 N.am      9 UNK        -0.4246 
     55 CA         34.6588   32.5921    2.9642 C.3       9 UNK         0.0261 
     56 CB         35.8591   33.5036    2.6286 C.3       9 UNK        -0.1959 
     57 C          35.1047   31.2043    3.4776 C.2       9 UNK         0.5033 
     58 O          36.0223   31.1465    4.2985 O.2       9 UNK        -0.5390 
     59 N          34.4495   30.1186    3.0425 N.am      10 UNK        -0.4215 
     60 CA         34.6860   28.7594    3.5198 C.3       10 UNK         0.0240 
     61 CB         34.6120   27.7847    2.3333 C.3       10 UNK        -0.1982 
     62 C          33.6246   28.4439    4.5784 C.2       10 UNK         0.4970 
     63 O          32.4576   28.2687    4.2307 O.2       10 UNK        -0.4916 
     64 N          34.0472   28.4190    5.8477 N.am      11 UNK        -0.4279 
     65 CA         33.2078   28.2096    7.0440 C.3       11 UNK         0.1003 
     66 C          32.2724   29.4044    7.4030 C.2       11 UNK         0.5709 
     67 N          32.3859   30.5586    6.7567 N.am      11 UNK        -0.7358 
     68 O          31.4535   29.2983    8.3123 O.2       11 UNK        -0.4999 
     69 C69        32.4484   26.8498    7.0508 C.3       12 UNK        -0.0954 
     70 S70        33.5459   25.4190    6.7946 S.3       12 UNK        -0.2268 
     71 C71        32.3177   24.0767    6.6561 C.3       12 UNK         0.0203 
     72 H72        34.4119   23.5381   -0.9408 H         1 UNK         0.0888 
     73 H73        32.9576   22.9436   -1.7439 H         1 UNK         0.0888 
     74 H74        34.3057   23.5577   -2.7036 H         1 UNK         0.0888 
     75 H75        31.2453   24.4136   -1.7122 H         1 UNK         0.3017 
     76 H76        31.5254   27.1309   -2.3877 H         1 UNK         0.0873 
     77 H77        32.2763   27.3568    0.0047 H         1 UNK         0.0745 
     78 H78        30.8630   28.2598   -0.3810 H         1 UNK         0.0745 
     79 H79        32.5095   25.7709    1.8916 H         1 UNK         0.0705 
     80 H80        31.6873   24.5192    0.9901 H         1 UNK         0.0705 
     81 H81        32.7911   25.2674    4.1652 H         1 UNK         0.1334 
     82 H82        29.9572   22.8522    6.2974 H         1 UNK         0.1417 
     83 H83        29.3129   23.7810    2.1621 H         1 UNK         0.1562 
     84 H84        27.9217   22.1968    5.3152 H         1 UNK         0.0748 
     85 H85        28.3363   21.4971    3.7701 H         1 UNK         0.0748 
     86 H86        27.5908   24.9531    5.0772 H         1 UNK         0.0940 
     87 H87        25.8675   25.0315    4.9529 H         1 UNK         0.0940 
     88 H88        27.7459   25.8304    2.6574 H         1 UNK         0.0703 
     89 H89        26.0041   26.1541    1.4255 H         1 UNK         0.3081 
     90 H90        22.5446   26.0283    1.8490 H         1 UNK         0.0719 
     91 H91        23.9963   28.6276    1.1019 H         1 UNK         0.0809 
     92 H92        22.3548   28.1875    0.6232 H         1 UNK         0.0809 
     93 H93        22.7327   28.4750    2.3133 H         1 UNK         0.0809 
     94 H94        24.2420   26.6842   -0.3921 H         1 UNK         0.2990 
     95 H95        25.4531   23.5292   -1.0952 H         1 UNK         0.0690 
     96 H96        24.2092   23.4925   -3.2397 H         1 UNK         0.0788 
     97 H97        23.0350   24.6515   -2.6129 H         1 UNK         0.0788 
     98 H98        23.1410   23.0373   -1.9248 H         1 UNK         0.0788 
     99 H99        25.3167   25.6790   -2.8658 H         1 UNK         0.2993 
    100 H100       27.2389   26.8171   -3.2667 H         1 UNK         0.0949 
    101 H101       26.7236   28.7902   -0.9630 H         1 UNK         0.0767 
    102 H102       27.1619   29.2423   -2.6110 H         1 UNK         0.0767 
    103 H103       25.6251   28.4580   -2.2937 H         1 UNK         0.0767 
    104 H104       29.0573   28.0373   -1.4333 H         1 UNK         0.3013 
    105 H105       29.1484   26.7104    4.3248 H         1 UNK         0.3121 
    106 H106       30.1875   28.4089    5.2951 H         1 UNK         0.0774 
    107 H107       29.0005   29.7564    6.9955 H         1 UNK         0.0815 
    108 H108       27.4453   29.2154    6.3865 H         1 UNK         0.0815 
    109 H109       28.5580   28.0636    7.1273 H         1 UNK         0.0815 
    110 H110       30.1715   28.8588    2.7658 H         1 UNK         0.2987 
    111 H111       29.4752   31.7069    2.2886 H         1 UNK         0.0949 
    112 H112       28.6427   31.0092    0.0040 H         1 UNK         0.0806 
    113 H113       28.8243   29.3183    0.4598 H         1 UNK         0.0806 
    114 H114       27.6473   30.3326    1.2819 H         1 UNK         0.0806 
    115 H115       30.6293   32.4924    0.3181 H         1 UNK         0.3010 
    116 H116       32.5138   33.0388   -0.7341 H         1 UNK         0.0829 
    117 H117       31.8573   30.9991   -2.0514 H         1 UNK         0.0813 
    118 H118       33.5912   31.2674   -2.0742 H         1 UNK         0.0813 
    119 H119       32.9173   30.0143   -1.0434 H         1 UNK         0.0813 
    120 H120       32.7512   32.8428    2.1094 H         1 UNK         0.3038 
    121 H121       34.1306   33.0524    3.8006 H         1 UNK         0.0769 
    122 H122       36.4868   33.6635    3.5062 H         1 UNK         0.0811 
    123 H123       35.5303   34.4845    2.2858 H         1 UNK         0.0811 
    124 H124       36.4938   33.0718    1.8544 H         1 UNK         0.0811 
    125 H125       33.6490   30.2239    2.4227 H         1 UNK         0.3204 
    126 H126       35.6805   28.6696    3.9620 H         1 UNK         0.0748 
    127 H127       34.7484   26.7544    2.6639 H         1 UNK         0.0771 
    128 H128       33.6493   27.8446    1.8269 H         1 UNK         0.0771 
    129 H129       35.3867   27.9986    1.5969 H         1 UNK         0.0771 
    130 H130       35.0216   28.6065    6.0349 H         1 UNK         0.2980 
    131 H131       33.9167   28.1743    7.8717 H         1 UNK         0.0545 
    132 H132       33.0659   30.6659    6.0230 H         1 UNK         0.3459 
    133 H133       31.7875   31.3273    7.0132 H         1 UNK         0.3459 
    134 H134       31.6693   26.8373    6.2886 H         1 UNK         0.0616 
    135 H135       31.9397   26.7021    8.0050 H         1 UNK         0.0616 
    136 H136       31.6679   24.1184    7.5317 H         1 UNK         0.0634 
    137 H137       32.8502   23.1267    6.7137 H         1 UNK         0.0634 
@<TRIPOS>BOND
     1    1    2 1    
     2    1   72 1    
     3    1   73 1    
     4    1   74 1    
     5    2    3 2    
     6    2    4 am   BACKBONE|DICT|INTERRES
     7    4    5 1    
     8    4   75 1    
     9    5    6 1    
    10    5   35 1    
    11    5   76 1    
    12    6    7 1    
    13    6   77 1    
    14    6   78 1    
    15    7    8 1    
    16    8    9 1    
    17    8   79 1    
    18    8   80 1    
    19    9   10 ar   
    20    9   14 ar   
    21   10   11 ar   
    22   10   81 1    
    23   11   12 ar   
    24   11   71 1    
    25   12   13 ar   
    26   12   82 1    
    27   13   14 ar   
    28   13   15 1    
    29   14   83 1    
    30   15   16 1    
    31   15   84 1    
    32   15   85 1    
    33   16   17 1    
    34   17   18 1    
    35   17   86 1    
    36   17   87 1    
    37   18   19 1    
    38   18   37 1    
    39   18   88 1    
    40   19   20 am   BACKBONE|DICT|INTERRES
    41   19   89 1    
    42   20   21 2    
    43   20   22 1    
    44   22   23 1    
    45   22   24 1    
    46   22   90 1    
    47   23   91 1    
    48   23   92 1    
    49   23   93 1    
    50   24   25 am   BACKBONE|DICT|INTERRES
    51   24   94 1    
    52   25   26 2    
    53   25   27 1    
    54   27   28 1    
    55   27   29 1    
    56   27   95 1    
    57   28   96 1    
    58   28   97 1    
    59   28   98 1    
    60   29   30 am   BACKBONE|DICT|INTERRES
    61   29   99 1    
    62   30   31 2    
    63   30   32 1    
    64   32   33 1    
    65   32   34 1    
    66   32  100 1    
    67   33  101 1    
    68   33  102 1    
    69   33  103 1    
    70   34   35 am   BACKBONE|DICT|INTERRES
    71   34  104 1    
    72   35   36 2    
    73   37   38 2    
    74   37   39 am   BACKBONE|DICT|INTERRES
    75   39   40 1    
    76   39  105 1    
    77   40   41 1    
    78   40   42 1    
    79   40  106 1    
    80   41  107 1    
    81   41  108 1    
    82   41  109 1    
    83   42   43 2    
    84   42   44 am   BACKBONE|DICT|INTERRES
    85   44   45 1    
    86   44  110 1    
    87   45   46 1    
    88   45   47 1    
    89   45  111 1    
    90   46  112 1    
    91   46  113 1    
    92   46  114 1    
    93   47   48 2    
    94   47   49 am   BACKBONE|DICT|INTERRES
    95   49   50 1    
    96   49  115 1    
    97   50   51 1    
    98   50   52 1    
    99   50  116 1    
   100   51  117 1    
   101   51  118 1    
   102   51  119 1    
   103   52   53 2    
   104   52   54 am   BACKBONE|DICT|INTERRES
   105   54   55 1    
   106   54  120 1    
   107   55   56 1    
   108   55   57 1    
   109   55  121 1    
   110   56  122 1    
   111   56  123 1    
   112   56  124 1    
   113   57   58 2    
   114   57   59 am   BACKBONE|DICT|INTERRES
   115   59   60 1    
   116   59  125 1    
   117   60   61 1    
   118   60   62 1    
   119   60  126 1    
   120   61  127 1    
   121   61  128 1    
   122   61  129 1    
   123   62   63 2    
   124   62   64 am   BACKBONE|DICT|INTERRES
   125   64   65 1    
   126   64  130 1    
   127   65   66 1    
   128   65   69 1    
   129   65  131 1    
   130   66   67 am   BACKBONE|DICT|INTERRES
   131   66   68 2    
   132   67  132 1    
   133   67  133 1    
   134   69   70 1    
   135   69  134 1    
   136   69  135 1    
   137   70   71 1    
   138   71  136 1    
   139   71  137 1    
@<TRIPOS>SUBSTRUCTURE
     1 UNK         1 GROUP             0       ****    0 ROOT    
