@<TRIPOS>MOLECULE
3R136
137   139    1
SMALL
USER_CHARGES


@<TRIPOS>ATOM
      1 CA         29.0433   19.7292   -1.7957 C.3       0 UNK        -0.1979 
      2 C          28.7971   20.9625   -0.9409 C.2       0 UNK         0.4864 
      3 O          28.8723   22.0843   -1.4447 O.2       0 UNK        -0.5359 
      4 N          28.4909   20.7722    0.3491 N.am      1 UNK        -0.4318 
      5 CA         28.2617   21.8323    1.3409 C.3       1 UNK         0.0824 
      6 C6         28.5576   21.3563    2.7867 C.3       12 UNK        -0.0944 
      7 S7         30.2294   20.6490    2.9846 S.3       12 UNK        -0.2672 
      8 C8         31.1450   22.0192    3.7766 C.3       12 UNK         0.0333 
      9 C9         31.7197   23.0900    2.8431 C.ar      12 UNK        -0.0807 
     10 C10        32.4014   24.1622    3.4255 C.ar      12 UNK        -0.0894 
     11 C11        33.0041   25.1471    2.6388 C.ar      12 UNK        -0.0804 
     12 C12        32.8963   25.0749    1.2465 C.ar      12 UNK        -0.0824 
     13 C13        32.2157   24.0121    0.6401 C.ar      12 UNK        -0.0762 
     14 C14        31.6447   23.0204    1.4447 C.ar      12 UNK        -0.0782 
     15 C15        32.1699   23.8589   -0.8796 C.3       12 UNK         0.0230 
     16 S16        31.8248   25.4002   -1.7924 S.3       12 UNK        -0.2608 
     17 C17        30.0430   25.6508   -1.4898 C.3       12 UNK        -0.0989 
     18 CA         29.7414   27.1061   -1.0472 C.3       5 UNK         0.0716 
     19 N          28.3545   27.4911   -1.3171 N.am      5 UNK        -0.4135 
     20 C          27.9648   28.6998   -1.7481 C.2       4 UNK         0.5031 
     21 O          28.7424   29.6142   -2.0230 O.2       4 UNK        -0.5229 
     22 CA         26.4518   28.9389   -1.9197 C.3       4 UNK         0.0329 
     23 CB         26.0236   28.6399   -3.3657 C.3       4 UNK        -0.2001 
     24 N          25.6326   28.1448   -1.0026 N.am      4 UNK        -0.4303 
     25 C          25.5264   28.3727    0.3141 C.2       3 UNK         0.5044 
     26 O          26.0191   29.3472    0.8791 O.2       3 UNK        -0.5152 
     27 CA         24.7561   27.3337    1.1529 C.3       3 UNK         0.0319 
     28 CB         23.3374   27.8398    1.4595 C.3       3 UNK        -0.2001 
     29 N          24.6709   25.9892    0.5642 N.am      3 UNK        -0.4354 
     30 C          25.7193   25.2229    0.2369 C.2       2 UNK         0.4964 
     31 O          26.8916   25.6040    0.2948 O.2       2 UNK        -0.5047 
     32 CA         25.4146   23.8162   -0.2966 C.3       2 UNK         0.0288 
     33 CB         25.1850   23.8584   -1.8159 C.3       2 UNK        -0.2113 
     34 N          26.5417   22.9312   -0.0131 N.am      2 UNK        -0.4145 
     35 C          26.8625   22.4702    1.2017 C.2       1 UNK         0.5006 
     36 O          26.1133   22.5527    2.1777 O.2       1 UNK        -0.5103 
     37 C          30.0506   27.3295    0.4405 C.2       5 UNK         0.5055 
     38 O          30.9842   28.0618    0.7713 O.2       5 UNK        -0.5220 
     39 N          29.2204   26.7430    1.3130 N.am      6 UNK        -0.4450 
     40 CA         29.3071   26.8303    2.7695 C.3       6 UNK         0.0367 
     41 CB         28.6457   25.5794    3.3772 C.3       6 UNK        -0.1929 
     42 C          28.7052   28.1460    3.3022 C.2       6 UNK         0.5070 
     43 O          27.9232   28.1307    4.2549 O.2       6 UNK        -0.5237 
     44 N          29.0672   29.2718    2.6754 N.am      7 UNK        -0.4739 
     45 CA         28.5414   30.6122    2.9399 C.3       7 UNK         0.0276 
     46 CB         28.6730   31.4631    1.6620 C.3       7 UNK        -0.1927 
     47 C          29.1957   31.2646    4.1726 C.2       7 UNK         0.5013 
     48 O          29.7613   32.3559    4.0666 O.2       7 UNK        -0.5193 
     49 N          29.1042   30.5738    5.3188 N.am      8 UNK        -0.4253 
     50 CA         29.5559   30.9718    6.6568 C.3       8 UNK         0.0242 
     51 CB         28.5587   31.9848    7.2638 C.3       8 UNK        -0.2000 
     52 C          31.0183   31.4567    6.6669 C.2       8 UNK         0.4948 
     53 O          31.9277   30.6353    6.5415 O.2       8 UNK        -0.5275 
     54 N          31.2143   32.7790    6.7747 N.am      9 UNK        -0.4246 
     55 CA         32.5073   33.4686    6.7706 C.3       9 UNK         0.0261 
     56 CB         32.2756   34.9732    6.9839 C.3       9 UNK        -0.1959 
     57 C          33.3626   33.2311    5.5123 C.2       9 UNK         0.5033 
     58 O          34.5840   33.3696    5.5963 O.2       9 UNK        -0.5390 
     59 N          32.7396   32.8385    4.3889 N.am      10 UNK        -0.4215 
     60 CA         33.4264   32.4382    3.1546 C.3       10 UNK         0.0240 
     61 CB         32.3895   32.1470    2.0614 C.3       10 UNK        -0.1982 
     62 C          34.3583   31.2234    3.3271 C.2       10 UNK         0.4970 
     63 O          35.3284   31.1064    2.5773 O.2       10 UNK        -0.4916 
     64 N          34.0670   30.3623    4.3114 N.am      11 UNK        -0.4279 
     65 CA         34.9273   29.2431    4.7164 C.3       11 UNK         0.1003 
     66 C          36.1335   29.6614    5.6099 C.2       11 UNK         0.5709 
     67 N          36.2741   30.9178    6.0198 N.am      11 UNK        -0.7358 
     68 O          36.9757   28.8251    5.9282 O.2       11 UNK        -0.4999 
     69 C69        34.1078   28.1005    5.3702 C.3       12 UNK        -0.0954 
     70 S70        32.8364   27.4063    4.2614 S.3       12 UNK        -0.2268 
     71 C71        33.8419   26.2327    3.3006 C.3       12 UNK         0.0203 
     72 H72        28.9485   18.8087   -1.2199 H         1 UNK         0.0888 
     73 H73        28.3270   19.6929   -2.6160 H         1 UNK         0.0888 
     74 H74        30.0465   19.7626   -2.2196 H         1 UNK         0.0888 
     75 H75        28.4267   19.8295    0.7067 H         1 UNK         0.3017 
     76 H76        28.9514   22.6496    1.1279 H         1 UNK         0.0873 
     77 H77        27.8386   20.5913    3.0862 H         1 UNK         0.0745 
     78 H78        28.4313   22.1782    3.4938 H         1 UNK         0.0745 
     79 H79        30.5091   22.4931    4.5258 H         1 UNK         0.0705 
     80 H80        31.9770   21.5765    4.3260 H         1 UNK         0.0705 
     81 H81        32.4940   24.2165    4.5021 H         1 UNK         0.1334 
     82 H82        33.3711   25.8281    0.6327 H         1 UNK         0.1417 
     83 H83        31.1684   22.1780    0.9657 H         1 UNK         0.1562 
     84 H84        31.4322   23.1108   -1.1740 H         1 UNK         0.0748 
     85 H85        33.1369   23.4770   -1.2090 H         1 UNK         0.0748 
     86 H86        29.6638   24.9166   -0.7752 H         1 UNK         0.0940 
     87 H87        29.5318   25.4343   -2.4293 H         1 UNK         0.0940 
     88 H88        30.3971   27.7681   -1.6178 H         1 UNK         0.0703 
     89 H89        27.6462   26.8220   -1.0358 H         1 UNK         0.3081 
     90 H90        26.2613   29.9957   -1.7198 H         1 UNK         0.0719 
     91 H91        26.5993   29.2377   -4.0739 H         1 UNK         0.0809 
     92 H92        26.1759   27.5914   -3.6253 H         1 UNK         0.0809 
     93 H93        24.9716   28.8772   -3.5253 H         1 UNK         0.0809 
     94 H94        25.1693   27.3336   -1.3845 H         1 UNK         0.2990 
     95 H95        25.2940   27.2358    2.0987 H         1 UNK         0.0690 
     96 H96        23.3664   28.8258    1.9260 H         1 UNK         0.0788 
     97 H97        22.8178   27.1744    2.1492 H         1 UNK         0.0788 
     98 H98        22.7352   27.9253    0.5542 H         1 UNK         0.0788 
     99 H99        23.7414   25.6075    0.4576 H         1 UNK         0.2993 
    100 H100       24.5217   23.4267    0.1974 H         1 UNK         0.0949 
    101 H101       24.9770   22.8639   -2.2113 H         1 UNK         0.0767 
    102 H102       24.3326   24.4904   -2.0684 H         1 UNK         0.0767 
    103 H103       26.0540   24.2524   -2.3455 H         1 UNK         0.0767 
    104 H104       27.2431   22.8279   -0.7417 H         1 UNK         0.3013 
    105 H105       28.4166   26.2329    0.9496 H         1 UNK         0.3121 
    106 H106       30.3590   26.8159    3.0521 H         1 UNK         0.0774 
    107 H107       28.7441   25.5729    4.4633 H         1 UNK         0.0815 
    108 H108       27.5816   25.5309    3.1419 H         1 UNK         0.0815 
    109 H109       29.1140   24.6677    3.0067 H         1 UNK         0.0815 
    110 H110       29.7602   29.1867    1.9389 H         1 UNK         0.2987 
    111 H111       27.4747   30.5266    3.1602 H         1 UNK         0.0949 
    112 H112       28.2859   32.4707    1.8191 H         1 UNK         0.0806 
    113 H113       29.7066   31.5558    1.3342 H         1 UNK         0.0806 
    114 H114       28.1074   31.0278    0.8383 H         1 UNK         0.0806 
    115 H115       28.6580   29.6626    5.2546 H         1 UNK         0.3010 
    116 H116       29.5314   30.0725    7.2743 H         1 UNK         0.0829 
    117 H117       28.4497   32.8796    6.6497 H         1 UNK         0.0813 
    118 H118       27.5688   31.5396    7.3655 H         1 UNK         0.0813 
    119 H119       28.8686   32.2973    8.2622 H         1 UNK         0.0813 
    120 H120       30.3949   33.3665    6.8295 H         1 UNK         0.3038 
    121 H121       33.0780   33.0861    7.6193 H         1 UNK         0.0769 
    122 H122       31.6798   35.4073    6.1800 H         1 UNK         0.0811 
    123 H123       33.2229   35.5137    7.0156 H         1 UNK         0.0811 
    124 H124       31.7636   35.1678    7.9265 H         1 UNK         0.0811 
    125 H125       31.7270   32.7450    4.3989 H         1 UNK         0.3204 
    126 H126       34.0398   33.2822    2.8328 H         1 UNK         0.0748 
    127 H127       32.8749   31.9471    1.1051 H         1 UNK         0.0771 
    128 H128       31.7914   31.2697    2.3108 H         1 UNK         0.0771 
    129 H129       31.7144   32.9903    1.9145 H         1 UNK         0.0771 
    130 H130       33.2611   30.5310    4.9033 H         1 UNK         0.2980 
    131 H131       35.3780   28.8304    3.8120 H         1 UNK         0.0545 
    132 H132       37.0689   31.1569    6.5907 H         1 UNK         0.3459 
    133 H133       35.6096   31.6386    5.7617 H         1 UNK         0.3459 
    134 H134       33.6083   28.4641    6.2696 H         1 UNK         0.0616 
    135 H135       34.7586   27.2888    5.6998 H         1 UNK         0.0616 
    136 H136       34.4146   26.7888    2.5570 H         1 UNK         0.0634 
    137 H137       34.5713   25.7516    3.9536 H         1 UNK         0.0634 
@<TRIPOS>BOND
     1    1    2 1    
     2    1   72 1    
     3    1   73 1    
     4    1   74 1    
     5    2    3 2    
     6    2    4 am   BACKBONE|DICT|INTERRES
     7    4    5 1    
     8    4   75 1    
     9    5    6 1    
    10    5   35 1    
    11    5   76 1    
    12    6    7 1    
    13    6   77 1    
    14    6   78 1    
    15    7    8 1    
    16    8    9 1    
    17    8   79 1    
    18    8   80 1    
    19    9   10 ar   
    20    9   14 ar   
    21   10   11 ar   
    22   10   81 1    
    23   11   12 ar   
    24   11   71 1    
    25   12   13 ar   
    26   12   82 1    
    27   13   14 ar   
    28   13   15 1    
    29   14   83 1    
    30   15   16 1    
    31   15   84 1    
    32   15   85 1    
    33   16   17 1    
    34   17   18 1    
    35   17   86 1    
    36   17   87 1    
    37   18   19 1    
    38   18   37 1    
    39   18   88 1    
    40   19   20 am   BACKBONE|DICT|INTERRES
    41   19   89 1    
    42   20   21 2    
    43   20   22 1    
    44   22   23 1    
    45   22   24 1    
    46   22   90 1    
    47   23   91 1    
    48   23   92 1    
    49   23   93 1    
    50   24   25 am   BACKBONE|DICT|INTERRES
    51   24   94 1    
    52   25   26 2    
    53   25   27 1    
    54   27   28 1    
    55   27   29 1    
    56   27   95 1    
    57   28   96 1    
    58   28   97 1    
    59   28   98 1    
    60   29   30 am   BACKBONE|DICT|INTERRES
    61   29   99 1    
    62   30   31 2    
    63   30   32 1    
    64   32   33 1    
    65   32   34 1    
    66   32  100 1    
    67   33  101 1    
    68   33  102 1    
    69   33  103 1    
    70   34   35 am   BACKBONE|DICT|INTERRES
    71   34  104 1    
    72   35   36 2    
    73   37   38 2    
    74   37   39 am   BACKBONE|DICT|INTERRES
    75   39   40 1    
    76   39  105 1    
    77   40   41 1    
    78   40   42 1    
    79   40  106 1    
    80   41  107 1    
    81   41  108 1    
    82   41  109 1    
    83   42   43 2    
    84   42   44 am   BACKBONE|DICT|INTERRES
    85   44   45 1    
    86   44  110 1    
    87   45   46 1    
    88   45   47 1    
    89   45  111 1    
    90   46  112 1    
    91   46  113 1    
    92   46  114 1    
    93   47   48 2    
    94   47   49 am   BACKBONE|DICT|INTERRES
    95   49   50 1    
    96   49  115 1    
    97   50   51 1    
    98   50   52 1    
    99   50  116 1    
   100   51  117 1    
   101   51  118 1    
   102   51  119 1    
   103   52   53 2    
   104   52   54 am   BACKBONE|DICT|INTERRES
   105   54   55 1    
   106   54  120 1    
   107   55   56 1    
   108   55   57 1    
   109   55  121 1    
   110   56  122 1    
   111   56  123 1    
   112   56  124 1    
   113   57   58 2    
   114   57   59 am   BACKBONE|DICT|INTERRES
   115   59   60 1    
   116   59  125 1    
   117   60   61 1    
   118   60   62 1    
   119   60  126 1    
   120   61  127 1    
   121   61  128 1    
   122   61  129 1    
   123   62   63 2    
   124   62   64 am   BACKBONE|DICT|INTERRES
   125   64   65 1    
   126   64  130 1    
   127   65   66 1    
   128   65   69 1    
   129   65  131 1    
   130   66   67 am   BACKBONE|DICT|INTERRES
   131   66   68 2    
   132   67  132 1    
   133   67  133 1    
   134   69   70 1    
   135   69  134 1    
   136   69  135 1    
   137   70   71 1    
   138   71  136 1    
   139   71  137 1    
@<TRIPOS>SUBSTRUCTURE
     1 UNK         1 GROUP             0       ****    0 ROOT    
