@<TRIPOS>MOLECULE
3R136
137   139    1
SMALL
USER_CHARGES


@<TRIPOS>ATOM
      1 CA         28.3921   21.8707   -4.6142 C.3       0 UNK        -0.1979 
      2 C          28.7469   22.6638   -3.3659 C.2       0 UNK         0.4864 
      3 O          28.5788   23.8844   -3.3471 O.2       0 UNK        -0.5359 
      4 N          29.2143   21.9808   -2.3089 N.am      1 UNK        -0.4318 
      5 CA         29.6607   22.5852   -1.0428 C.3       1 UNK         0.0824 
      6 C6         30.4657   21.5877   -0.1635 C.3       12 UNK        -0.0944 
      7 S7         32.0587   22.2955    0.3823 S.3       12 UNK        -0.2672 
      8 C8         32.2015   21.6800    2.0886 C.3       12 UNK         0.0333 
      9 C9         31.6449   22.6667    3.1053 C.ar      12 UNK        -0.0807 
     10 C10        32.4847   23.6189    3.6913 C.ar      12 UNK        -0.0894 
     11 C11        31.9980   24.4879    4.6729 C.ar      12 UNK        -0.0804 
     12 C12        30.6527   24.4182    5.0496 C.ar      12 UNK        -0.0824 
     13 C13        29.8002   23.4766    4.4651 C.ar      12 UNK        -0.0762 
     14 C14        30.3059   22.6000    3.4982 C.ar      12 UNK        -0.0782 
     15 C15        28.3487   23.3642    4.9133 C.3       12 UNK         0.0230 
     16 S16        27.1952   23.5102    3.5139 S.3       12 UNK        -0.2608 
     17 C17        26.4638   25.1637    3.7349 C.3       12 UNK        -0.0989 
     18 CA         27.4457   26.3645    3.6907 C.3       5 UNK         0.0716 
     19 N          28.3625   26.3564    2.5430 N.am      5 UNK        -0.4135 
     20 C          29.3579   27.2440    2.3782 C.2       4 UNK         0.5031 
     21 O          29.6696   28.0789    3.2241 O.2       4 UNK        -0.5229 
     22 CA         30.1000   27.2479    1.0328 C.3       4 UNK         0.0329 
     23 CB         31.3143   26.3048    1.0695 C.3       4 UNK        -0.2001 
     24 N          29.2169   26.9021   -0.0838 N.am      4 UNK        -0.4303 
     25 C          28.2868   27.7245   -0.5932 C.2       3 UNK         0.5044 
     26 O          28.1113   28.8789   -0.2102 O.2       3 UNK        -0.5152 
     27 CA         27.3609   27.1593   -1.6846 C.3       3 UNK         0.0319 
     28 CB         28.0199   27.2759   -3.0674 C.3       3 UNK        -0.2001 
     29 N          26.9757   25.7696   -1.4379 N.am      3 UNK        -0.4354 
     30 C          26.2444   25.3652   -0.3864 C.2       2 UNK         0.4964 
     31 O          25.7418   26.1372    0.4309 O.2       2 UNK        -0.5047 
     32 CA         26.1036   23.8452   -0.1712 C.3       2 UNK         0.0288 
     33 CB         24.8411   23.3190   -0.8711 C.3       2 UNK        -0.2113 
     34 N          27.2680   23.0778   -0.6283 N.am      2 UNK        -0.4145 
     35 C          28.5386   23.2929   -0.2494 C.2       1 UNK         0.5006 
     36 O          28.8448   24.0835    0.6407 O.2       1 UNK        -0.5103 
     37 C          26.6415   27.6815    3.7607 C.2       5 UNK         0.5055 
     38 O          26.5052   28.2526    4.8436 O.2       5 UNK        -0.5220 
     39 N          26.1206   28.1256    2.6060 N.am      6 UNK        -0.4450 
     40 CA         25.3728   29.3724    2.4477 C.3       6 UNK         0.0367 
     41 CB         24.6566   29.3760    1.0863 C.3       6 UNK        -0.1929 
     42 C          26.2655   30.6126    2.6154 C.2       6 UNK         0.5070 
     43 O          26.0231   31.4219    3.5121 O.2       6 UNK        -0.5237 
     44 N          27.2913   30.7419    1.7649 N.am      7 UNK        -0.4739 
     45 CA         28.2631   31.8345    1.7926 C.3       7 UNK         0.0276 
     46 CB         28.7541   32.1147    0.3598 C.3       7 UNK        -0.1927 
     47 C          29.4113   31.4831    2.7498 C.2       7 UNK         0.5013 
     48 O          30.5373   31.2586    2.3036 O.2       7 UNK        -0.5193 
     49 N          29.0977   31.4487    4.0535 N.am      8 UNK        -0.4253 
     50 CA         29.9679   31.0165    5.1575 C.3       8 UNK         0.0242 
     51 CB         29.2168   31.1938    6.4863 C.3       8 UNK        -0.2000 
     52 C          31.3535   31.6863    5.2287 C.2       8 UNK         0.4948 
     53 O          32.2807   31.0864    5.7714 O.2       8 UNK        -0.5275 
     54 N          31.4949   32.8856    4.6458 N.am      9 UNK        -0.4246 
     55 CA         32.7699   33.5803    4.4460 C.3       9 UNK         0.0261 
     56 CB         32.5029   34.9570    3.8171 C.3       9 UNK        -0.1959 
     57 C          33.7856   32.7889    3.5966 C.2       9 UNK         0.5033 
     58 O          34.9891   32.9574    3.7996 O.2       9 UNK        -0.5390 
     59 N          33.3035   31.9153    2.6969 N.am      10 UNK        -0.4215 
     60 CA         34.1280   31.0102    1.8887 C.3       10 UNK         0.0240 
     61 CB         33.2518   30.3354    0.8204 C.3       10 UNK        -0.1982 
     62 C          34.8664   29.9440    2.7189 C.2       10 UNK         0.4970 
     63 O          35.8912   29.4371    2.2609 O.2       10 UNK        -0.4916 
     64 N          34.3506   29.6314    3.9146 N.am      11 UNK        -0.4279 
     65 CA         34.9699   28.7145    4.8813 C.3       11 UNK         0.1003 
     66 C          36.1236   29.3588    5.7058 C.2       11 UNK         0.5709 
     67 N          36.3980   30.6542    5.5868 N.am      11 UNK        -0.7358 
     68 O          36.7973   28.6628    6.4619 O.2       11 UNK        -0.4999 
     69 C69        33.9092   28.0611    5.8060 C.3       12 UNK        -0.0954 
     70 S70        32.6115   27.1811    4.8715 S.3       12 UNK        -0.2268 
     71 C71        32.9368   25.4649    5.3649 C.3       12 UNK         0.0203 
     72 H72        28.5537   20.8009   -4.4783 H         1 UNK         0.0888 
     73 H73        27.3444   22.0263   -4.8723 H         1 UNK         0.0888 
     74 H74        29.0032   22.2030   -5.4535 H         1 UNK         0.0888 
     75 H75        29.3163   20.9778   -2.3775 H         1 UNK         0.3017 
     76 H76        30.3323   23.3923   -1.3448 H         1 UNK         0.0873 
     77 H77        30.7072   20.6822   -0.7222 H         1 UNK         0.0745 
     78 H78        29.8875   21.2467    0.6973 H         1 UNK         0.0745 
     79 H79        31.7085   20.7113    2.1830 H         1 UNK         0.0705 
     80 H80        33.2562   21.4966    2.2995 H         1 UNK         0.0705 
     81 H81        33.5249   23.6660    3.3991 H         1 UNK         0.1334 
     82 H82        30.2782   25.0893    5.8106 H         1 UNK         0.1417 
     83 H83        29.6523   21.8618    3.0549 H         1 UNK         0.1562 
     84 H84        28.1084   24.1047    5.6773 H         1 UNK         0.0748 
     85 H85        28.2053   22.3888    5.3800 H         1 UNK         0.0748 
     86 H86        25.9230   25.1621    4.6836 H         1 UNK         0.0940 
     87 H87        25.6980   25.2684    2.9643 H         1 UNK         0.0940 
     88 H88        28.0692   26.3209    4.5857 H         1 UNK         0.0703 
     89 H89        28.2371   25.6249    1.8511 H         1 UNK         0.3081 
     90 H90        30.4701   28.2622    0.8662 H         1 UNK         0.0719 
     91 H91        31.0313   25.2792    1.3078 H         1 UNK         0.0809 
     92 H92        31.8451   26.2969    0.1178 H         1 UNK         0.0809 
     93 H93        32.0234   26.6232    1.8347 H         1 UNK         0.0809 
     94 H94        29.2332   25.9364   -0.3831 H         1 UNK         0.2990 
     95 H95        26.4495   27.7610   -1.6905 H         1 UNK         0.0690 
     96 H96        27.3474   26.9397   -3.8568 H         1 UNK         0.0788 
     97 H97        28.9329   26.6824   -3.1314 H         1 UNK         0.0788 
     98 H98        28.2863   28.3109   -3.2863 H         1 UNK         0.0788 
     99 H99        27.3691   25.0726   -2.0622 H         1 UNK         0.2993 
    100 H100       25.9960   23.6756    0.9002 H         1 UNK         0.0949 
    101 H101       23.9553   23.8598   -0.5343 H         1 UNK         0.0767 
    102 H102       24.9017   23.4336   -1.9542 H         1 UNK         0.0767 
    103 H103       24.6764   22.2637   -0.6521 H         1 UNK         0.0767 
    104 H104       27.1077   22.4139   -1.3712 H         1 UNK         0.3013 
    105 H105       26.2295   27.5519    1.7749 H         1 UNK         0.3121 
    106 H106       24.6089   29.4071    3.2275 H         1 UNK         0.0774 
    107 H107       24.0928   30.2988    0.9440 H         1 UNK         0.0815 
    108 H108       25.3573   29.2891    0.2553 H         1 UNK         0.0815 
    109 H109       23.9502   28.5491    1.0104 H         1 UNK         0.0815 
    110 H110       27.4726   30.0071    1.0820 H         1 UNK         0.2987 
    111 H111       27.7860   32.7455    2.1609 H         1 UNK         0.0949 
    112 H112       29.2776   31.2577   -0.0656 H         1 UNK         0.0806 
    113 H113       27.9249   32.3623   -0.3028 H         1 UNK         0.0806 
    114 H114       29.4467   32.9570    0.3442 H         1 UNK         0.0806 
    115 H115       28.1275   31.6176    4.2905 H         1 UNK         0.3010 
    116 H116       30.1503   29.9501    5.0136 H         1 UNK         0.0829 
    117 H117       28.2950   30.6114    6.5001 H         1 UNK         0.0813 
    118 H118       29.8237   30.8544    7.3271 H         1 UNK         0.0813 
    119 H119       28.9600   32.2380    6.6683 H         1 UNK         0.0813 
    120 H120       30.6786   33.3023    4.2231 H         1 UNK         0.3038 
    121 H121       33.2181   33.7320    5.4301 H         1 UNK         0.0769 
    122 H122       32.0290   34.8690    2.8386 H         1 UNK         0.0811 
    123 H123       33.4335   35.5096    3.6797 H         1 UNK         0.0811 
    124 H124       31.8580   35.5660    4.4509 H         1 UNK         0.0811 
    125 H125       32.2942   31.8031    2.6037 H         1 UNK         0.3204 
    126 H126       34.8838   31.6134    1.3816 H         1 UNK         0.0748 
    127 H127       33.8540   29.7163    0.1541 H         1 UNK         0.0771 
    128 H128       32.4976   29.6891    1.2714 H         1 UNK         0.0771 
    129 H129       32.7359   31.0714    0.2035 H         1 UNK         0.0771 
    130 H130       33.5190   30.1081    4.2404 H         1 UNK         0.2980 
    131 H131       35.4361   27.9055    4.3159 H         1 UNK         0.0545 
    132 H132       37.1530   31.0467    6.1260 H         1 UNK         0.3459 
    133 H133       35.8635   31.2456    4.9646 H         1 UNK         0.3459 
    134 H134       33.4269   28.8153    6.4287 H         1 UNK         0.0616 
    135 H135       34.3845   27.3639    6.4983 H         1 UNK         0.0616 
    136 H136       33.9771   25.2221    5.1422 H         1 UNK         0.0634 
    137 H137       32.8204   25.3734    6.4457 H         1 UNK         0.0634 
@<TRIPOS>BOND
     1    1    2 1    
     2    1   72 1    
     3    1   73 1    
     4    1   74 1    
     5    2    3 2    
     6    2    4 am   BACKBONE|DICT|INTERRES
     7    4    5 1    
     8    4   75 1    
     9    5    6 1    
    10    5   35 1    
    11    5   76 1    
    12    6    7 1    
    13    6   77 1    
    14    6   78 1    
    15    7    8 1    
    16    8    9 1    
    17    8   79 1    
    18    8   80 1    
    19    9   10 ar   
    20    9   14 ar   
    21   10   11 ar   
    22   10   81 1    
    23   11   12 ar   
    24   11   71 1    
    25   12   13 ar   
    26   12   82 1    
    27   13   14 ar   
    28   13   15 1    
    29   14   83 1    
    30   15   16 1    
    31   15   84 1    
    32   15   85 1    
    33   16   17 1    
    34   17   18 1    
    35   17   86 1    
    36   17   87 1    
    37   18   19 1    
    38   18   37 1    
    39   18   88 1    
    40   19   20 am   BACKBONE|DICT|INTERRES
    41   19   89 1    
    42   20   21 2    
    43   20   22 1    
    44   22   23 1    
    45   22   24 1    
    46   22   90 1    
    47   23   91 1    
    48   23   92 1    
    49   23   93 1    
    50   24   25 am   BACKBONE|DICT|INTERRES
    51   24   94 1    
    52   25   26 2    
    53   25   27 1    
    54   27   28 1    
    55   27   29 1    
    56   27   95 1    
    57   28   96 1    
    58   28   97 1    
    59   28   98 1    
    60   29   30 am   BACKBONE|DICT|INTERRES
    61   29   99 1    
    62   30   31 2    
    63   30   32 1    
    64   32   33 1    
    65   32   34 1    
    66   32  100 1    
    67   33  101 1    
    68   33  102 1    
    69   33  103 1    
    70   34   35 am   BACKBONE|DICT|INTERRES
    71   34  104 1    
    72   35   36 2    
    73   37   38 2    
    74   37   39 am   BACKBONE|DICT|INTERRES
    75   39   40 1    
    76   39  105 1    
    77   40   41 1    
    78   40   42 1    
    79   40  106 1    
    80   41  107 1    
    81   41  108 1    
    82   41  109 1    
    83   42   43 2    
    84   42   44 am   BACKBONE|DICT|INTERRES
    85   44   45 1    
    86   44  110 1    
    87   45   46 1    
    88   45   47 1    
    89   45  111 1    
    90   46  112 1    
    91   46  113 1    
    92   46  114 1    
    93   47   48 2    
    94   47   49 am   BACKBONE|DICT|INTERRES
    95   49   50 1    
    96   49  115 1    
    97   50   51 1    
    98   50   52 1    
    99   50  116 1    
   100   51  117 1    
   101   51  118 1    
   102   51  119 1    
   103   52   53 2    
   104   52   54 am   BACKBONE|DICT|INTERRES
   105   54   55 1    
   106   54  120 1    
   107   55   56 1    
   108   55   57 1    
   109   55  121 1    
   110   56  122 1    
   111   56  123 1    
   112   56  124 1    
   113   57   58 2    
   114   57   59 am   BACKBONE|DICT|INTERRES
   115   59   60 1    
   116   59  125 1    
   117   60   61 1    
   118   60   62 1    
   119   60  126 1    
   120   61  127 1    
   121   61  128 1    
   122   61  129 1    
   123   62   63 2    
   124   62   64 am   BACKBONE|DICT|INTERRES
   125   64   65 1    
   126   64  130 1    
   127   65   66 1    
   128   65   69 1    
   129   65  131 1    
   130   66   67 am   BACKBONE|DICT|INTERRES
   131   66   68 2    
   132   67  132 1    
   133   67  133 1    
   134   69   70 1    
   135   69  134 1    
   136   69  135 1    
   137   70   71 1    
   138   71  136 1    
   139   71  137 1    
@<TRIPOS>SUBSTRUCTURE
     1 UNK         1 GROUP             0       ****    0 ROOT    
