@<TRIPOS>MOLECULE
3R136
137   139    1
SMALL
USER_CHARGES


@<TRIPOS>ATOM
      1 CA         29.7548   22.5880    6.6587 C.3       0 UNK        -0.1979 
      2 C          29.2871   23.0429    5.2838 C.2       0 UNK         0.4864 
      3 O          28.8620   24.1889    5.1346 O.2       0 UNK        -0.5359 
      4 N          29.3601   22.1462    4.2902 N.am      1 UNK        -0.4318 
      5 CA         28.9531   22.3505    2.8934 C.3       1 UNK         0.0824 
      6 C6         29.8443   23.3679    2.1276 C.3       12 UNK        -0.0944 
      7 S7         31.5664   22.7763    2.0397 S.3       12 UNK        -0.2672 
      8 C8         32.0081   23.0906    0.2962 C.3       12 UNK         0.0333 
      9 C9         32.6291   24.4667    0.0819 C.ar      12 UNK        -0.0807 
     10 C10        33.6756   24.8948    0.9025 C.ar      12 UNK        -0.0894 
     11 C11        34.2939   26.1278    0.6931 C.ar      12 UNK        -0.0804 
     12 C12        33.8734   26.9332   -0.3707 C.ar      12 UNK        -0.0824 
     13 C13        32.8455   26.5076   -1.2221 C.ar      12 UNK        -0.0762 
     14 C14        32.2175   25.2796   -0.9800 C.ar      12 UNK        -0.0782 
     15 C15        32.4836   27.3304   -2.4544 C.3       12 UNK         0.0230 
     16 S16        31.1832   28.5671   -2.1449 S.3       12 UNK        -0.2608 
     17 C17        29.6491   27.5960   -2.3775 C.3       12 UNK        -0.0989 
     18 CA         28.6413   27.7929   -1.2118 C.3       5 UNK         0.0716 
     19 N          27.3126   27.2525   -1.4770 N.am      5 UNK        -0.4135 
     20 C          26.4483   27.7286   -2.3822 C.2       4 UNK         0.5031 
     21 O          26.7052   28.6438   -3.1655 O.2       4 UNK        -0.5229 
     22 CA         25.0441   27.0983   -2.4081 C.3       4 UNK         0.0329 
     23 CB         25.0500   25.7945   -3.2229 C.3       4 UNK        -0.2001 
     24 N          24.5041   26.8368   -1.0721 N.am      4 UNK        -0.4303 
     25 C          24.2216   27.7721   -0.1513 C.2       3 UNK         0.5044 
     26 O          24.3189   28.9831   -0.3523 O.2       3 UNK        -0.5152 
     27 CA         23.7544   27.2784    1.2336 C.3       3 UNK         0.0319 
     28 CB         22.2294   27.4195    1.3683 C.3       3 UNK        -0.2001 
     29 N          24.1375   25.8930    1.5327 N.am      3 UNK        -0.4354 
     30 C          25.3997   25.4648    1.6692 C.2       2 UNK         0.4964 
     31 O          26.3819   26.2045    1.6021 O.2       2 UNK        -0.5047 
     32 CA         25.5857   23.9554    1.8524 C.3       2 UNK         0.0288 
     33 CB         25.1135   23.1791    0.6054 C.3       2 UNK        -0.2113 
     34 N          26.9943   23.6547    2.1019 N.am      2 UNK        -0.4145 
     35 C          27.4309   22.5963    2.7954 C.2       1 UNK         0.5006 
     36 O          26.6715   21.7826    3.3294 O.2       1 UNK        -0.5103 
     37 C          29.1657   27.1508    0.0777 C.2       5 UNK         0.5055 
     38 O          29.1018   25.9285    0.2226 O.2       5 UNK        -0.5220 
     39 N          29.7356   27.9952    0.9378 N.am      6 UNK        -0.4450 
     40 CA         30.6077   27.6365    2.0498 C.3       6 UNK         0.0367 
     41 CB         29.7735   27.3190    3.3059 C.3       6 UNK        -0.1929 
     42 C          31.5788   28.8114    2.2458 C.2       6 UNK         0.5070 
     43 O          31.7730   29.2720    3.3734 O.2       6 UNK        -0.5237 
     44 N          32.0904   29.3422    1.1220 N.am      7 UNK        -0.4739 
     45 CA         32.7181   30.6613    0.9759 C.3       7 UNK         0.0276 
     46 CB         34.1028   30.7014    1.6578 C.3       7 UNK        -0.1927 
     47 C          31.7451   31.7671    1.4333 C.2       7 UNK         0.5013 
     48 O          30.5495   31.6672    1.1443 O.2       7 UNK        -0.5193 
     49 N          32.2322   32.7644    2.1813 N.am      8 UNK        -0.4253 
     50 CA         31.4213   33.8048    2.8233 C.3       8 UNK         0.0242 
     51 CB         32.2907   35.0622    3.0161 C.3       8 UNK        -0.2000 
     52 C          30.7970   33.3031    4.1443 C.2       8 UNK         0.4948 
     53 O          30.9283   33.9693    5.1727 O.2       8 UNK        -0.5275 
     54 N          30.1579   32.1228    4.0919 N.am      9 UNK        -0.4246 
     55 CA         29.5916   31.3524    5.2088 C.3       9 UNK         0.0261 
     56 CB         28.3358   32.0523    5.7703 C.3       9 UNK        -0.1959 
     57 C          30.6435   31.0339    6.2920 C.2       9 UNK         0.5033 
     58 O          30.3945   31.2471    7.4809 O.2       9 UNK        -0.5390 
     59 N          31.8126   30.5598    5.8456 N.am      10 UNK        -0.4215 
     60 CA         33.0016   30.3312    6.6677 C.3       10 UNK         0.0240 
     61 CB         34.1400   31.2279    6.1521 C.3       10 UNK        -0.1982 
     62 C          33.4453   28.8616    6.6702 C.2       10 UNK         0.4970 
     63 O          34.0115   28.4193    7.6706 O.2       10 UNK        -0.4916 
     64 N          33.2005   28.1319    5.5735 N.am      11 UNK        -0.4279 
     65 CA         33.6144   26.7269    5.4074 C.3       11 UNK         0.1003 
     66 C          32.6876   25.6976    6.1184 C.2       11 UNK         0.5709 
     67 N          31.5575   26.1014    6.6872 N.am      11 UNK        -0.7358 
     68 O          33.0085   24.5129    6.1669 O.2       11 UNK        -0.4999 
     69 C69        33.8288   26.3506    3.9172 C.3       12 UNK        -0.0954 
     70 S70        34.9254   27.5124    3.0331 S.3       12 UNK        -0.2268 
     71 C71        35.4556   26.5450    1.5861 C.3       12 UNK         0.0203 
     72 H72        30.6923   23.0788    6.9172 H         1 UNK         0.0888 
     73 H73        29.0128   22.8460    7.4139 H         1 UNK         0.0888 
     74 H74        29.9145   21.5106    6.6979 H         1 UNK         0.0888 
     75 H75        29.7002   21.2180    4.4978 H         1 UNK         0.3017 
     76 H76        29.0948   21.3836    2.4076 H         1 UNK         0.0873 
     77 H77        29.8320   24.3505    2.5998 H         1 UNK         0.0745 
     78 H78        29.4762   23.5040    1.1105 H         1 UNK         0.0745 
     79 H79        31.1382   22.9435   -0.3453 H         1 UNK         0.0705 
     80 H80        32.7385   22.3407   -0.0097 H         1 UNK         0.0705 
     81 H81        34.0186   24.2567    1.7050 H         1 UNK         0.1334 
     82 H82        34.3690   27.8769   -0.5541 H         1 UNK         0.1417 
     83 H83        31.4309   24.9391   -1.6388 H         1 UNK         0.1562 
     84 H84        32.1841   26.6768   -3.2752 H         1 UNK         0.0748 
     85 H85        33.3722   27.8550   -2.8092 H         1 UNK         0.0748 
     86 H86        29.8771   26.5380   -2.5153 H         1 UNK         0.0940 
     87 H87        29.2115   27.9248   -3.3204 H         1 UNK         0.0940 
     88 H88        28.5114   28.8642   -1.0403 H         1 UNK         0.0703 
     89 H89        27.0260   26.5185   -0.8412 H         1 UNK         0.3081 
     90 H90        24.3742   27.8055   -2.9021 H         1 UNK         0.0719 
     91 H91        25.4317   25.9670   -4.2303 H         1 UNK         0.0809 
     92 H92        25.6780   25.0302   -2.7633 H         1 UNK         0.0809 
     93 H93        24.0444   25.3861   -3.3260 H         1 UNK         0.0809 
     94 H94        24.3657   25.8703   -0.8186 H         1 UNK         0.2990 
     95 H95        24.2247   27.9219    1.9803 H         1 UNK         0.0690 
     96 H96        21.8928   27.1569    2.3715 H         1 UNK         0.0788 
     97 H97        21.7001   26.7835    0.6575 H         1 UNK         0.0788 
     98 H98        21.9144   28.4474    1.1826 H         1 UNK         0.0788 
     99 H99        23.3845   25.2231    1.6041 H         1 UNK         0.2993 
    100 H100       24.9903   23.6575    2.7186 H         1 UNK         0.0949 
    101 H101       24.0561   23.3497    0.4004 H         1 UNK         0.0767 
    102 H102       25.6733   23.4701   -0.2846 H         1 UNK         0.0767 
    103 H103       25.2386   22.1042    0.7378 H         1 UNK         0.0767 
    104 H104       27.6474   24.3468    1.7500 H         1 UNK         0.3013 
    105 H105       29.7182   28.9849    0.7241 H         1 UNK         0.3121 
    106 H106       31.1968   26.7586    1.7751 H         1 UNK         0.0774 
    107 H107       30.4111   26.9855    4.1245 H         1 UNK         0.0815 
    108 H108       29.2196   28.1916    3.6516 H         1 UNK         0.0815 
    109 H109       29.0504   26.5260    3.1159 H         1 UNK         0.0815 
    110 H110       31.8783   28.8747    0.2498 H         1 UNK         0.2987 
    111 H111       32.8686   30.8162   -0.0936 H         1 UNK         0.0949 
    112 H112       34.6191   31.6421    1.4640 H         1 UNK         0.0806 
    113 H113       34.7448   29.9106    1.2710 H         1 UNK         0.0806 
    114 H114       34.0343   30.5709    2.7378 H         1 UNK         0.0806 
    115 H115       33.2155   32.7548    2.4105 H         1 UNK         0.3010 
    116 H116       30.5947   34.0734    2.1617 H         1 UNK         0.0829 
    117 H117       33.1285   34.8750    3.6891 H         1 UNK         0.0813 
    118 H118       32.6941   35.4155    2.0669 H         1 UNK         0.0813 
    119 H119       31.7071   35.8802    3.4408 H         1 UNK         0.0813 
    120 H120       30.1199   31.6730    3.1832 H         1 UNK         0.3038 
    121 H121       29.2787   30.3929    4.7952 H         1 UNK         0.0769 
    122 H122       27.8536   31.4374    6.5312 H         1 UNK         0.0811 
    123 H123       27.5998   32.2344    4.9874 H         1 UNK         0.0811 
    124 H124       28.5785   33.0099    6.2321 H         1 UNK         0.0811 
    125 H125       31.8822   30.3244    4.8565 H         1 UNK         0.3204 
    126 H126       32.8017   30.6058    7.7056 H         1 UNK         0.0748 
    127 H127       35.0369   31.1109    6.7620 H         1 UNK         0.0771 
    128 H128       34.4105   30.9866    5.1237 H         1 UNK         0.0771 
    129 H129       33.8591   32.2809    6.1863 H         1 UNK         0.0771 
    130 H130       32.7314   28.5516    4.7761 H         1 UNK         0.2980 
    131 H131       34.5863   26.6184    5.8926 H         1 UNK         0.0545 
    132 H132       30.9609   25.4277    7.1382 H         1 UNK         0.3459 
    133 H133       31.2953   27.0727    6.6635 H         1 UNK         0.3459 
    134 H134       34.2642   25.3525    3.8467 H         1 UNK         0.0616 
    135 H135       32.8744   26.3067    3.3934 H         1 UNK         0.0616 
    136 H136       36.0057   25.6665    1.9269 H         1 UNK         0.0634 
    137 H137       36.1654   27.1415    1.0114 H         1 UNK         0.0634 
@<TRIPOS>BOND
     1    1    2 1    
     2    1   72 1    
     3    1   73 1    
     4    1   74 1    
     5    2    3 2    
     6    2    4 am   BACKBONE|DICT|INTERRES
     7    4    5 1    
     8    4   75 1    
     9    5    6 1    
    10    5   35 1    
    11    5   76 1    
    12    6    7 1    
    13    6   77 1    
    14    6   78 1    
    15    7    8 1    
    16    8    9 1    
    17    8   79 1    
    18    8   80 1    
    19    9   10 ar   
    20    9   14 ar   
    21   10   11 ar   
    22   10   81 1    
    23   11   12 ar   
    24   11   71 1    
    25   12   13 ar   
    26   12   82 1    
    27   13   14 ar   
    28   13   15 1    
    29   14   83 1    
    30   15   16 1    
    31   15   84 1    
    32   15   85 1    
    33   16   17 1    
    34   17   18 1    
    35   17   86 1    
    36   17   87 1    
    37   18   19 1    
    38   18   37 1    
    39   18   88 1    
    40   19   20 am   BACKBONE|DICT|INTERRES
    41   19   89 1    
    42   20   21 2    
    43   20   22 1    
    44   22   23 1    
    45   22   24 1    
    46   22   90 1    
    47   23   91 1    
    48   23   92 1    
    49   23   93 1    
    50   24   25 am   BACKBONE|DICT|INTERRES
    51   24   94 1    
    52   25   26 2    
    53   25   27 1    
    54   27   28 1    
    55   27   29 1    
    56   27   95 1    
    57   28   96 1    
    58   28   97 1    
    59   28   98 1    
    60   29   30 am   BACKBONE|DICT|INTERRES
    61   29   99 1    
    62   30   31 2    
    63   30   32 1    
    64   32   33 1    
    65   32   34 1    
    66   32  100 1    
    67   33  101 1    
    68   33  102 1    
    69   33  103 1    
    70   34   35 am   BACKBONE|DICT|INTERRES
    71   34  104 1    
    72   35   36 2    
    73   37   38 2    
    74   37   39 am   BACKBONE|DICT|INTERRES
    75   39   40 1    
    76   39  105 1    
    77   40   41 1    
    78   40   42 1    
    79   40  106 1    
    80   41  107 1    
    81   41  108 1    
    82   41  109 1    
    83   42   43 2    
    84   42   44 am   BACKBONE|DICT|INTERRES
    85   44   45 1    
    86   44  110 1    
    87   45   46 1    
    88   45   47 1    
    89   45  111 1    
    90   46  112 1    
    91   46  113 1    
    92   46  114 1    
    93   47   48 2    
    94   47   49 am   BACKBONE|DICT|INTERRES
    95   49   50 1    
    96   49  115 1    
    97   50   51 1    
    98   50   52 1    
    99   50  116 1    
   100   51  117 1    
   101   51  118 1    
   102   51  119 1    
   103   52   53 2    
   104   52   54 am   BACKBONE|DICT|INTERRES
   105   54   55 1    
   106   54  120 1    
   107   55   56 1    
   108   55   57 1    
   109   55  121 1    
   110   56  122 1    
   111   56  123 1    
   112   56  124 1    
   113   57   58 2    
   114   57   59 am   BACKBONE|DICT|INTERRES
   115   59   60 1    
   116   59  125 1    
   117   60   61 1    
   118   60   62 1    
   119   60  126 1    
   120   61  127 1    
   121   61  128 1    
   122   61  129 1    
   123   62   63 2    
   124   62   64 am   BACKBONE|DICT|INTERRES
   125   64   65 1    
   126   64  130 1    
   127   65   66 1    
   128   65   69 1    
   129   65  131 1    
   130   66   67 am   BACKBONE|DICT|INTERRES
   131   66   68 2    
   132   67  132 1    
   133   67  133 1    
   134   69   70 1    
   135   69  134 1    
   136   69  135 1    
   137   70   71 1    
   138   71  136 1    
   139   71  137 1    
@<TRIPOS>SUBSTRUCTURE
     1 UNK         1 GROUP             0       ****    0 ROOT    
