@<TRIPOS>MOLECULE
3R136
137   139    1
SMALL
USER_CHARGES


@<TRIPOS>ATOM
      1 CA         27.3360   26.8132    6.3323 C.3       0 UNK        -0.1979 
      2 C          27.0237   25.8191    5.2240 C.2       0 UNK         0.4864 
      3 O          25.9409   25.2305    5.2115 O.2       0 UNK        -0.5359 
      4 N          27.9582   25.6321    4.2832 N.am      1 UNK        -0.4318 
      5 CA         27.8479   24.7162    3.1420 C.3       1 UNK         0.0824 
      6 C6         29.2383   24.2900    2.5996 C.3       12 UNK        -0.0944 
      7 S7         30.2932   23.4690    3.8436 S.3       12 UNK        -0.2672 
      8 C8         31.3556   24.8264    4.4393 C.3       12 UNK         0.0333 
      9 C9         32.2894   25.3606    3.3619 C.ar      12 UNK        -0.0807 
     10 C10        33.4926   24.7022    3.0831 C.ar      12 UNK        -0.0894 
     11 C11        34.3676   25.2059    2.1149 C.ar      12 UNK        -0.0804 
     12 C12        34.0292   26.3742    1.4253 C.ar      12 UNK        -0.0824 
     13 C13        32.8356   27.0457    1.7012 C.ar      12 UNK        -0.0762 
     14 C14        31.9686   26.5349    2.6697 C.ar      12 UNK        -0.0782 
     15 C15        32.5005   28.3332    0.9645 C.3       12 UNK         0.0230 
     16 S16        31.5244   28.0047   -0.5350 S.3       12 UNK        -0.2608 
     17 C17        29.8929   28.6433   -0.0350 C.3       12 UNK        -0.0989 
     18 CA         28.8195   28.4268   -1.1299 C.3       5 UNK         0.0716 
     19 N          28.4987   27.0095   -1.2926 N.am      5 UNK        -0.4135 
     20 C          28.7138   26.2894   -2.3993 C.2       4 UNK         0.5031 
     21 O          29.1455   26.7567   -3.4546 O.2       4 UNK        -0.5229 
     22 CA         28.4143   24.7863   -2.3217 C.3       4 UNK         0.0329 
     23 CB         29.5354   24.0624   -1.5554 C.3       4 UNK        -0.2001 
     24 N          27.1319   24.5166   -1.6693 N.am      4 UNK        -0.4303 
     25 C          26.0315   24.0737   -2.2943 C.2       3 UNK         0.5044 
     26 O          25.9638   23.8870   -3.5101 O.2       3 UNK        -0.5152 
     27 CA         24.7977   23.7474   -1.4293 C.3       3 UNK         0.0319 
     28 CB         24.6862   22.2291   -1.2128 C.3       3 UNK        -0.2001 
     29 N          24.8063   24.4107   -0.1244 N.am      3 UNK        -0.4354 
     30 C          24.5156   25.7037    0.0718 C.2       2 UNK         0.4964 
     31 O          24.1187   26.4545   -0.8198 O.2       2 UNK        -0.5047 
     32 CA         24.6967   26.2556    1.4998 C.3       2 UNK         0.0288 
     33 CB         23.3485   26.2777    2.2386 C.3       2 UNK        -0.2113 
     34 N          25.6833   25.5528    2.3328 N.am      2 UNK        -0.4145 
     35 C          26.9748   25.3481    2.0363 C.2       1 UNK         0.5006 
     36 O          27.4800   25.6482    0.9530 O.2       1 UNK        -0.5103 
     37 C          27.5336   29.1895   -0.7781 C.2       5 UNK         0.5055 
     38 O          26.6756   28.6602   -0.0707 O.2       5 UNK        -0.5220 
     39 N          27.4390   30.4398   -1.2503 N.am      6 UNK        -0.4450 
     40 CA         26.3068   31.3406   -1.0026 C.3       6 UNK         0.0367 
     41 CB         26.3300   32.4698   -2.0465 C.3       6 UNK        -0.1929 
     42 C          26.2765   31.9290    0.4219 C.2       6 UNK         0.5070 
     43 O          25.2389   32.4494    0.8334 O.2       6 UNK        -0.5237 
     44 N          27.4002   31.8520    1.1422 N.am      7 UNK        -0.4739 
     45 CA         27.5650   32.2914    2.5237 C.3       7 UNK         0.0276 
     46 CB         28.1550   33.7123    2.5412 C.3       7 UNK        -0.1927 
     47 C          28.4926   31.3036    3.2382 C.2       7 UNK         0.5013 
     48 O          29.2594   30.5954    2.5790 O.2       7 UNK        -0.5193 
     49 N          28.4416   31.2950    4.5755 N.am      8 UNK        -0.4253 
     50 CA         29.2101   30.4070    5.4558 C.3       8 UNK         0.0242 
     51 CB         28.5033   30.3321    6.8228 C.3       8 UNK        -0.2000 
     52 C          30.7017   30.7885    5.5860 C.2       8 UNK         0.4948 
     53 O          31.2519   30.7594    6.6890 O.2       8 UNK        -0.5275 
     54 N          31.3546   31.1046    4.4611 N.am      9 UNK        -0.4246 
     55 CA         32.7888   31.3883    4.3476 C.3       9 UNK         0.0261 
     56 CB         33.0228   32.2470    3.0903 C.3       9 UNK        -0.1959 
     57 C          33.5995   30.0773    4.3326 C.2       9 UNK         0.5033 
     58 O          34.2761   29.7787    3.3475 O.2       9 UNK        -0.5390 
     59 N          33.4469   29.2898    5.4038 N.am      10 UNK        -0.4215 
     60 CA         33.9106   27.9097    5.5194 C.3       10 UNK         0.0240 
     61 CB         33.3048   27.2802    6.7845 C.3       10 UNK        -0.1982 
     62 C          35.4367   27.7511    5.5053 C.2       10 UNK         0.4970 
     63 O          36.1566   28.6093    6.0208 O.2       10 UNK        -0.4916 
     64 N          35.8796   26.6125    4.9601 N.am      11 UNK        -0.4279 
     65 CA         37.2801   26.1675    4.9244 C.3       11 UNK         0.1003 
     66 C          37.8886   25.8087    6.3131 C.2       11 UNK         0.5709 
     67 N          37.0973   25.6149    7.3621 N.am      11 UNK        -0.7358 
     68 O          39.1068   25.7090    6.4398 O.2       11 UNK        -0.4999 
     69 C69        37.4649   24.9901    3.9308 C.3       12 UNK        -0.0954 
     70 S70        37.1407   25.4592    2.1978 S.3       12 UNK        -0.2268 
     71 C71        35.6620   24.4786    1.7767 C.3       12 UNK         0.0203 
     72 H72        26.6393   27.6498    6.2905 H         1 UNK         0.0888 
     73 H73        27.2339   26.3332    7.3053 H         1 UNK         0.0888 
     74 H74        28.3492   27.2065    6.2552 H         1 UNK         0.0888 
     75 H75        28.8118   26.1659    4.3256 H         1 UNK         0.3017 
     76 H76        27.3366   23.8096    3.4738 H         1 UNK         0.0873 
     77 H77        29.7638   25.1378    2.1627 H         1 UNK         0.0745 
     78 H78        29.1095   23.5777    1.7826 H         1 UNK         0.0745 
     79 H79        31.9483   24.4577    5.2779 H         1 UNK         0.0705 
     80 H80        30.7387   25.6284    4.8447 H         1 UNK         0.0705 
     81 H81        33.7404   23.7932    3.6147 H         1 UNK         0.1334 
     82 H82        34.7021   26.7645    0.6738 H         1 UNK         0.1417 
     83 H83        31.0492   27.0604    2.8875 H         1 UNK         0.1562 
     84 H84        33.4199   28.8475    0.6802 H         1 UNK         0.0748 
     85 H85        31.9702   29.0196    1.6269 H         1 UNK         0.0748 
     86 H86        30.0157   29.7068    0.1783 H         1 UNK         0.0940 
     87 H87        29.5914   28.1725    0.9035 H         1 UNK         0.0940 
     88 H88        29.1968   28.8365   -2.0695 H         1 UNK         0.0703 
     89 H89        28.0875   26.5638   -0.4742 H         1 UNK         0.3081 
     90 H90        28.4088   24.3983   -3.3426 H         1 UNK         0.0719 
     91 H91        30.5020   24.2257   -2.0340 H         1 UNK         0.0809 
     92 H92        29.6200   24.4165   -0.5274 H         1 UNK         0.0809 
     93 H93        29.3651   22.9862   -1.5266 H         1 UNK         0.0809 
     94 H94        27.0853   24.7140   -0.6746 H         1 UNK         0.2990 
     95 H95        23.9145   24.0767   -1.9812 H         1 UNK         0.0690 
     96 H96        23.7818   21.9718   -0.6610 H         1 UNK         0.0788 
     97 H97        25.5412   21.8350   -0.6618 H         1 UNK         0.0788 
     98 H98        24.6422   21.7010   -2.1664 H         1 UNK         0.0788 
     99 H99        25.0999   23.8595    0.6686 H         1 UNK         0.2993 
    100 H100       25.0428   27.2854    1.3988 H         1 UNK         0.0949 
    101 H101       22.9652   25.2705    2.4068 H         1 UNK         0.0767 
    102 H102       23.4348   26.7709    3.2072 H         1 UNK         0.0767 
    103 H103       22.5967   26.8227    1.6656 H         1 UNK         0.0767 
    104 H104       25.3917   25.3118    3.2756 H         1 UNK         0.3013 
    105 H105       28.1901   30.8076   -1.8176 H         1 UNK         0.3121 
    106 H106       25.3829   30.7732   -1.1360 H         1 UNK         0.0774 
    107 H107       25.4784   33.1393   -1.9163 H         1 UNK         0.0815 
    108 H108       27.2339   33.0751   -1.9675 H         1 UNK         0.0815 
    109 H109       26.2752   32.0751   -3.0613 H         1 UNK         0.0815 
    110 H110       28.1907   31.3436    0.7691 H         1 UNK         0.2987 
    111 H111       26.5994   32.2851    3.0347 H         1 UNK         0.0949 
    112 H112       27.5000   34.4181    2.0299 H         1 UNK         0.0806 
    113 H113       28.2847   34.0743    3.5619 H         1 UNK         0.0806 
    114 H114       29.1306   33.7494    2.0545 H         1 UNK         0.0806 
    115 H115       27.8215   31.9457    5.0366 H         1 UNK         0.3010 
    116 H116       29.1884   29.4055    5.0208 H         1 UNK         0.0829 
    117 H117       27.4621   30.0273    6.7184 H         1 UNK         0.0813 
    118 H118       28.9860   29.6041    7.4765 H         1 UNK         0.0813 
    119 H119       28.5210   31.2936    7.3375 H         1 UNK         0.0813 
    120 H120       30.8303   31.0334    3.5933 H         1 UNK         0.3038 
    121 H121       33.1113   31.9667    5.2161 H         1 UNK         0.0769 
    122 H122       32.4707   33.1855    3.1429 H         1 UNK         0.0811 
    123 H123       32.7136   31.7267    2.1826 H         1 UNK         0.0811 
    124 H124       34.0785   32.4981    2.9799 H         1 UNK         0.0811 
    125 H125       32.8650   29.6447    6.1560 H         1 UNK         0.3204 
    126 H126       33.5207   27.3815    4.6536 H         1 UNK         0.0748 
    127 H127       33.5809   26.2287    6.8732 H         1 UNK         0.0771 
    128 H128       33.6470   27.7866    7.6882 H         1 UNK         0.0771 
    129 H129       32.2155   27.3246    6.7673 H         1 UNK         0.0771 
    130 H130       35.2139   25.9826    4.5377 H         1 UNK         0.2980 
    131 H131       37.8699   27.0088    4.5554 H         1 UNK         0.0545 
    132 H132       37.5092   25.3871    8.2533 H         1 UNK         0.3459 
    133 H133       36.0980   25.6933    7.2732 H         1 UNK         0.3459 
    134 H134       38.4915   24.6200    3.9624 H         1 UNK         0.0616 
    135 H135       36.8339   24.1469    4.2168 H         1 UNK         0.0616 
    136 H136       35.6767   24.2817    0.7039 H         1 UNK         0.0634 
    137 H137       35.7087   23.5022    2.2610 H         1 UNK         0.0634 
@<TRIPOS>BOND
     1    1    2 1    
     2    1   72 1    
     3    1   73 1    
     4    1   74 1    
     5    2    3 2    
     6    2    4 am   BACKBONE|DICT|INTERRES
     7    4    5 1    
     8    4   75 1    
     9    5    6 1    
    10    5   35 1    
    11    5   76 1    
    12    6    7 1    
    13    6   77 1    
    14    6   78 1    
    15    7    8 1    
    16    8    9 1    
    17    8   79 1    
    18    8   80 1    
    19    9   10 ar   
    20    9   14 ar   
    21   10   11 ar   
    22   10   81 1    
    23   11   12 ar   
    24   11   71 1    
    25   12   13 ar   
    26   12   82 1    
    27   13   14 ar   
    28   13   15 1    
    29   14   83 1    
    30   15   16 1    
    31   15   84 1    
    32   15   85 1    
    33   16   17 1    
    34   17   18 1    
    35   17   86 1    
    36   17   87 1    
    37   18   19 1    
    38   18   37 1    
    39   18   88 1    
    40   19   20 am   BACKBONE|DICT|INTERRES
    41   19   89 1    
    42   20   21 2    
    43   20   22 1    
    44   22   23 1    
    45   22   24 1    
    46   22   90 1    
    47   23   91 1    
    48   23   92 1    
    49   23   93 1    
    50   24   25 am   BACKBONE|DICT|INTERRES
    51   24   94 1    
    52   25   26 2    
    53   25   27 1    
    54   27   28 1    
    55   27   29 1    
    56   27   95 1    
    57   28   96 1    
    58   28   97 1    
    59   28   98 1    
    60   29   30 am   BACKBONE|DICT|INTERRES
    61   29   99 1    
    62   30   31 2    
    63   30   32 1    
    64   32   33 1    
    65   32   34 1    
    66   32  100 1    
    67   33  101 1    
    68   33  102 1    
    69   33  103 1    
    70   34   35 am   BACKBONE|DICT|INTERRES
    71   34  104 1    
    72   35   36 2    
    73   37   38 2    
    74   37   39 am   BACKBONE|DICT|INTERRES
    75   39   40 1    
    76   39  105 1    
    77   40   41 1    
    78   40   42 1    
    79   40  106 1    
    80   41  107 1    
    81   41  108 1    
    82   41  109 1    
    83   42   43 2    
    84   42   44 am   BACKBONE|DICT|INTERRES
    85   44   45 1    
    86   44  110 1    
    87   45   46 1    
    88   45   47 1    
    89   45  111 1    
    90   46  112 1    
    91   46  113 1    
    92   46  114 1    
    93   47   48 2    
    94   47   49 am   BACKBONE|DICT|INTERRES
    95   49   50 1    
    96   49  115 1    
    97   50   51 1    
    98   50   52 1    
    99   50  116 1    
   100   51  117 1    
   101   51  118 1    
   102   51  119 1    
   103   52   53 2    
   104   52   54 am   BACKBONE|DICT|INTERRES
   105   54   55 1    
   106   54  120 1    
   107   55   56 1    
   108   55   57 1    
   109   55  121 1    
   110   56  122 1    
   111   56  123 1    
   112   56  124 1    
   113   57   58 2    
   114   57   59 am   BACKBONE|DICT|INTERRES
   115   59   60 1    
   116   59  125 1    
   117   60   61 1    
   118   60   62 1    
   119   60  126 1    
   120   61  127 1    
   121   61  128 1    
   122   61  129 1    
   123   62   63 2    
   124   62   64 am   BACKBONE|DICT|INTERRES
   125   64   65 1    
   126   64  130 1    
   127   65   66 1    
   128   65   69 1    
   129   65  131 1    
   130   66   67 am   BACKBONE|DICT|INTERRES
   131   66   68 2    
   132   67  132 1    
   133   67  133 1    
   134   69   70 1    
   135   69  134 1    
   136   69  135 1    
   137   70   71 1    
   138   71  136 1    
   139   71  137 1    
@<TRIPOS>SUBSTRUCTURE
     1 UNK         1 GROUP             0       ****    0 ROOT    
