@<TRIPOS>MOLECULE
3R136
137   139    1
SMALL
USER_CHARGES


@<TRIPOS>ATOM
      1 CA         32.7105   24.9862   -4.6557 C.3       0 UNK        -0.1979 
      2 C          31.6865   25.5111   -3.6600 C.2       0 UNK         0.4864 
      3 O          31.0005   26.4922   -3.9500 O.2       0 UNK        -0.5359 
      4 N          31.5848   24.8702   -2.4883 N.am      1 UNK        -0.4318 
      5 CA         30.6146   25.1953   -1.4403 C.3       1 UNK         0.0824 
      6 C6         31.0222   24.5565   -0.0907 C.3       12 UNK        -0.0944 
      7 S7         30.1223   25.2910    1.3117 S.3       12 UNK        -0.2672 
      8 C8         31.4601   26.0643    2.2717 C.3       12 UNK         0.0333 
      9 C9         30.8786   26.7719    3.4830 C.ar      12 UNK        -0.0807 
     10 C10        30.8949   28.1661    3.5814 C.ar      12 UNK        -0.0894 
     11 C11        30.2865   28.8034    4.6675 C.ar      12 UNK        -0.0804 
     12 C12        29.6484   28.0381    5.6498 C.ar      12 UNK        -0.0824 
     13 C13        29.6234   26.6436    5.5574 C.ar      12 UNK        -0.0762 
     14 C14        30.2704   26.0186    4.4889 C.ar      12 UNK        -0.0782 
     15 C15        28.8798   25.8114    6.5939 C.3       12 UNK         0.0230 
     16 S16        27.7204   24.6229    5.8311 S.3       12 UNK        -0.2608 
     17 C17        26.3977   25.7060    5.1938 C.3       12 UNK        -0.0989 
     18 CA         26.5549   26.0559    3.6749 C.3       5 UNK         0.0716 
     19 N          25.3854   25.7109    2.8595 N.am      5 UNK        -0.4135 
     20 C          24.1200   26.1251    3.0437 C.2       4 UNK         0.5031 
     21 O          23.7503   26.7805    4.0187 O.2       4 UNK        -0.5229 
     22 CA         23.0725   25.7745    1.9643 C.3       4 UNK         0.0329 
     23 CB         22.5636   27.0542    1.2778 C.3       4 UNK        -0.2001 
     24 N          23.5592   24.8590    0.9316 N.am      4 UNK        -0.4303 
     25 C          23.8110   23.5535    1.0969 C.2       3 UNK         0.5044 
     26 O          23.5487   22.9312    2.1263 O.2       3 UNK        -0.5152 
     27 CA         24.5091   22.8268   -0.0708 C.3       3 UNK         0.0319 
     28 CB         23.4975   21.9725   -0.8520 C.3       3 UNK        -0.2001 
     29 N          25.2177   23.7110   -1.0093 N.am      3 UNK        -0.4354 
     30 C          26.2310   24.5306   -0.6932 C.2       2 UNK         0.4964 
     31 O          26.6610   24.6797    0.4538 O.2       2 UNK        -0.5047 
     32 CA         26.7904   25.3916   -1.8349 C.3       2 UNK         0.0288 
     33 CB         26.0282   26.7249   -1.9111 C.3       2 UNK        -0.2113 
     34 N          28.2110   25.6653   -1.6276 N.am      2 UNK        -0.4145 
     35 C          29.1903   24.7843   -1.8690 C.2       1 UNK         0.5006 
     36 O          29.0072   23.6792   -2.3892 O.2       1 UNK        -0.5103 
     37 C          26.9243   27.5266    3.3868 C.2       5 UNK         0.5055 
     38 O          26.7055   28.4037    4.2258 O.2       5 UNK        -0.5220 
     39 N          27.4109   27.7840    2.1652 N.am      6 UNK        -0.4450 
     40 CA         27.7760   29.1164    1.6942 C.3       6 UNK         0.0367 
     41 CB         26.5208   29.8752    1.2243 C.3       6 UNK        -0.1929 
     42 C          28.7994   29.0117    0.5599 C.2       6 UNK         0.5070 
     43 O          28.6617   28.1385   -0.2991 O.2       6 UNK        -0.5237 
     44 N          29.7668   29.9353    0.5765 N.am      7 UNK        -0.4739 
     45 CA         30.8417   30.2054   -0.3837 C.3       7 UNK         0.0276 
     46 CB         31.4955   28.9198   -0.9344 C.3       7 UNK        -0.1927 
     47 C          31.8948   31.0657    0.3311 C.2       7 UNK         0.5013 
     48 O          31.8241   31.2318    1.5525 O.2       7 UNK        -0.5193 
     49 N          32.8696   31.5780   -0.4305 N.am      8 UNK        -0.4253 
     50 CA         34.0783   32.2144    0.0952 C.3       8 UNK         0.0242 
     51 CB         34.6948   33.1100   -0.9953 C.3       8 UNK        -0.2000 
     52 C          35.0500   31.1209    0.5730 C.2       8 UNK         0.4948 
     53 O          35.8876   30.6602   -0.2055 O.2       8 UNK        -0.5275 
     54 N          34.8704   30.6809    1.8209 N.am      9 UNK        -0.4246 
     55 CA         35.5821   29.5711    2.4478 C.3       9 UNK         0.0261 
     56 CB         34.8172   28.2628    2.1588 C.3       9 UNK        -0.1959 
     57 C          35.7031   29.8333    3.9555 C.2       9 UNK         0.5033 
     58 O          35.2267   30.8611    4.4455 O.2       9 UNK        -0.5390 
     59 N          36.3295   28.8929    4.6734 N.am      10 UNK        -0.4215 
     60 CA         36.4048   28.8735    6.1345 C.3       10 UNK         0.0240 
     61 CB         37.5746   27.9703    6.5678 C.3       10 UNK        -0.1982 
     62 C          35.0598   28.4090    6.7219 C.2       10 UNK         0.4970 
     63 O          34.8796   27.2161    6.9726 O.2       10 UNK        -0.4916 
     64 N          34.1313   29.3584    6.8823 N.am      11 UNK        -0.4279 
     65 CA         32.7514   29.1355    7.3464 C.3       11 UNK         0.1003 
     66 C          32.6105   28.6397    8.8155 C.2       11 UNK         0.5709 
     67 N          33.6308   28.7518    9.6581 N.am      11 UNK        -0.7358 
     68 O          31.5531   28.1431    9.1963 O.2       11 UNK        -0.4999 
     69 C69        31.8628   30.3872    7.1131 C.3       12 UNK        -0.0954 
     70 S70        31.8690   30.9642    5.3816 S.3       12 UNK        -0.2268 
     71 C71        30.2865   30.3215    4.7596 C.3       12 UNK         0.0203 
     72 H72        33.2541   24.1253   -4.2669 H         1 UNK         0.0888 
     73 H73        33.4347   25.7646   -4.8944 H         1 UNK         0.0888 
     74 H74        32.2156   24.6858   -5.5789 H         1 UNK         0.0888 
     75 H75        32.1502   24.0501   -2.3226 H         1 UNK         0.3017 
     76 H76        30.6281   26.2764   -1.3142 H         1 UNK         0.0873 
     77 H77        32.0923   24.6886    0.0770 H         1 UNK         0.0745 
     78 H78        30.8503   23.4783   -0.0962 H         1 UNK         0.0745 
     79 H79        32.1683   25.3010    2.5974 H         1 UNK         0.0705 
     80 H80        32.0123   26.7600    1.6401 H         1 UNK         0.0705 
     81 H81        31.3637   28.7596    2.8080 H         1 UNK         0.1334 
     82 H82        29.1530   28.5306    6.4750 H         1 UNK         0.1417 
     83 H83        30.2501   24.9402    4.4064 H         1 UNK         0.1562 
     84 H84        28.3345   26.4475    7.2930 H         1 UNK         0.0748 
     85 H85        29.6111   25.2591    7.1856 H         1 UNK         0.0748 
     86 H86        26.3110   26.5859    5.8326 H         1 UNK         0.0940 
     87 H87        25.4698   25.1581    5.3621 H         1 UNK         0.0940 
     88 H88        27.3691   25.4546    3.2659 H         1 UNK         0.0703 
     89 H89        25.6075   25.2074    2.0055 H         1 UNK         0.3081 
     90 H90        22.2313   25.2986    2.4727 H         1 UNK         0.0719 
     91 H91        22.1417   27.7485    2.0060 H         1 UNK         0.0809 
     92 H92        23.3654   27.5787    0.7560 H         1 UNK         0.0809 
     93 H93        21.7783   26.8330    0.5546 H         1 UNK         0.0809 
     94 H94        23.7995   25.2712    0.0424 H         1 UNK         0.2990 
     95 H95        25.2524   22.1591    0.3697 H         1 UNK         0.0690 
     96 H96        23.9904   21.3718   -1.6167 H         1 UNK         0.0788 
     97 H97        22.7418   22.5883   -1.3415 H         1 UNK         0.0788 
     98 H98        22.9748   21.2814   -0.1889 H         1 UNK         0.0788 
     99 H99        24.9115   23.6727   -1.9714 H         1 UNK         0.2993 
    100 H100       26.6691   24.8595   -2.7811 H         1 UNK         0.0949 
    101 H101       26.0860   27.2757   -0.9714 H         1 UNK         0.0767 
    102 H102       26.4294   27.3657   -2.6967 H         1 UNK         0.0767 
    103 H103       24.9723   26.5640   -2.1321 H         1 UNK         0.0767 
    104 H104       28.4361   26.5408   -1.1553 H         1 UNK         0.3013 
    105 H105       27.6013   27.0281    1.5173 H         1 UNK         0.3121 
    106 H106       28.2327   29.6650    2.5204 H         1 UNK         0.0774 
    107 H107       26.7796   30.8681    0.8547 H         1 UNK         0.0815 
    108 H108       26.0119   29.3482    0.4167 H         1 UNK         0.0815 
    109 H109       25.8074   30.0095    2.0374 H         1 UNK         0.0815 
    110 H110       29.8128   30.5671    1.3675 H         1 UNK         0.2987 
    111 H111       30.4286   30.7897   -1.2078 H         1 UNK         0.0949 
    112 H112       30.8480   28.4514   -1.6739 H         1 UNK         0.0806 
    113 H113       32.4383   29.1184   -1.4451 H         1 UNK         0.0806 
    114 H114       31.7009   28.1992   -0.1443 H         1 UNK         0.0806 
    115 H115       32.8640   31.3835   -1.4216 H         1 UNK         0.3010 
    116 H116       33.8187   32.8489    0.9460 H         1 UNK         0.0829 
    117 H117       35.6105   33.5825   -0.6373 H         1 UNK         0.0813 
    118 H118       34.0108   33.9079   -1.2849 H         1 UNK         0.0813 
    119 H119       34.9493   32.5453   -1.8932 H         1 UNK         0.0813 
    120 H120       34.1772   31.1254    2.4125 H         1 UNK         0.3038 
    121 H121       36.5928   29.5055    2.0394 H         1 UNK         0.0769 
    122 H122       34.6759   28.1125    1.0882 H         1 UNK         0.0811 
    123 H123       33.8321   28.2677    2.6264 H         1 UNK         0.0811 
    124 H124       35.3535   27.3908    2.5337 H         1 UNK         0.0811 
    125 H125       36.6791   28.0735    4.1978 H         1 UNK         0.3204 
    126 H126       36.6108   29.8828    6.4982 H         1 UNK         0.0748 
    127 H127       37.6476   27.9236    7.6552 H         1 UNK         0.0771 
    128 H128       37.4586   26.9481    6.2049 H         1 UNK         0.0771 
    129 H129       38.5264   28.3508    6.1964 H         1 UNK         0.0771 
    130 H130       34.3416   30.2946    6.5625 H         1 UNK         0.2980 
    131 H131       32.3505   28.3300    6.7287 H         1 UNK         0.0545 
    132 H132       33.5267   28.4245   10.6055 H         1 UNK         0.3459 
    133 H133       34.5010   29.1588    9.3561 H         1 UNK         0.3459 
    134 H134       32.2086   31.2130    7.7373 H         1 UNK         0.0616 
    135 H135       30.8325   30.1942    7.4168 H         1 UNK         0.0616 
    136 H136       30.1066   30.7460    3.7714 H         1 UNK         0.0634 
    137 H137       29.4722   30.6736    5.3947 H         1 UNK         0.0634 
@<TRIPOS>BOND
     1    1    2 1    
     2    1   72 1    
     3    1   73 1    
     4    1   74 1    
     5    2    3 2    
     6    2    4 am   BACKBONE|DICT|INTERRES
     7    4    5 1    
     8    4   75 1    
     9    5    6 1    
    10    5   35 1    
    11    5   76 1    
    12    6    7 1    
    13    6   77 1    
    14    6   78 1    
    15    7    8 1    
    16    8    9 1    
    17    8   79 1    
    18    8   80 1    
    19    9   10 ar   
    20    9   14 ar   
    21   10   11 ar   
    22   10   81 1    
    23   11   12 ar   
    24   11   71 1    
    25   12   13 ar   
    26   12   82 1    
    27   13   14 ar   
    28   13   15 1    
    29   14   83 1    
    30   15   16 1    
    31   15   84 1    
    32   15   85 1    
    33   16   17 1    
    34   17   18 1    
    35   17   86 1    
    36   17   87 1    
    37   18   19 1    
    38   18   37 1    
    39   18   88 1    
    40   19   20 am   BACKBONE|DICT|INTERRES
    41   19   89 1    
    42   20   21 2    
    43   20   22 1    
    44   22   23 1    
    45   22   24 1    
    46   22   90 1    
    47   23   91 1    
    48   23   92 1    
    49   23   93 1    
    50   24   25 am   BACKBONE|DICT|INTERRES
    51   24   94 1    
    52   25   26 2    
    53   25   27 1    
    54   27   28 1    
    55   27   29 1    
    56   27   95 1    
    57   28   96 1    
    58   28   97 1    
    59   28   98 1    
    60   29   30 am   BACKBONE|DICT|INTERRES
    61   29   99 1    
    62   30   31 2    
    63   30   32 1    
    64   32   33 1    
    65   32   34 1    
    66   32  100 1    
    67   33  101 1    
    68   33  102 1    
    69   33  103 1    
    70   34   35 am   BACKBONE|DICT|INTERRES
    71   34  104 1    
    72   35   36 2    
    73   37   38 2    
    74   37   39 am   BACKBONE|DICT|INTERRES
    75   39   40 1    
    76   39  105 1    
    77   40   41 1    
    78   40   42 1    
    79   40  106 1    
    80   41  107 1    
    81   41  108 1    
    82   41  109 1    
    83   42   43 2    
    84   42   44 am   BACKBONE|DICT|INTERRES
    85   44   45 1    
    86   44  110 1    
    87   45   46 1    
    88   45   47 1    
    89   45  111 1    
    90   46  112 1    
    91   46  113 1    
    92   46  114 1    
    93   47   48 2    
    94   47   49 am   BACKBONE|DICT|INTERRES
    95   49   50 1    
    96   49  115 1    
    97   50   51 1    
    98   50   52 1    
    99   50  116 1    
   100   51  117 1    
   101   51  118 1    
   102   51  119 1    
   103   52   53 2    
   104   52   54 am   BACKBONE|DICT|INTERRES
   105   54   55 1    
   106   54  120 1    
   107   55   56 1    
   108   55   57 1    
   109   55  121 1    
   110   56  122 1    
   111   56  123 1    
   112   56  124 1    
   113   57   58 2    
   114   57   59 am   BACKBONE|DICT|INTERRES
   115   59   60 1    
   116   59  125 1    
   117   60   61 1    
   118   60   62 1    
   119   60  126 1    
   120   61  127 1    
   121   61  128 1    
   122   61  129 1    
   123   62   63 2    
   124   62   64 am   BACKBONE|DICT|INTERRES
   125   64   65 1    
   126   64  130 1    
   127   65   66 1    
   128   65   69 1    
   129   65  131 1    
   130   66   67 am   BACKBONE|DICT|INTERRES
   131   66   68 2    
   132   67  132 1    
   133   67  133 1    
   134   69   70 1    
   135   69  134 1    
   136   69  135 1    
   137   70   71 1    
   138   71  136 1    
   139   71  137 1    
@<TRIPOS>SUBSTRUCTURE
     1 UNK         1 GROUP             0       ****    0 ROOT    
