@<TRIPOS>MOLECULE
3R136
137   139    1
SMALL
USER_CHARGES


@<TRIPOS>ATOM
      1 CA         33.2921   24.5558   -3.1004 C.3       0 UNK        -0.1979 
      2 C          32.3794   25.5469   -2.3935 C.2       0 UNK         0.4864 
      3 O          32.5359   26.7563   -2.5692 O.2       0 UNK        -0.5359 
      4 N          31.4339   25.0435   -1.5911 N.am      1 UNK        -0.4318 
      5 CA         30.4196   25.8368   -0.8946 C.3       1 UNK         0.0824 
      6 C6         29.9063   25.1292    0.3858 C.3       12 UNK        -0.0944 
      7 S7         29.3329   23.4043    0.1708 S.3       12 UNK        -0.2672 
      8 C8         30.7719   22.4163    0.7094 C.3       12 UNK         0.0333 
      9 C9         31.0930   22.6081    2.1850 C.ar      12 UNK        -0.0807 
     10 C10        32.1404   23.4493    2.5699 C.ar      12 UNK        -0.0894 
     11 C11        32.4148   23.6736    3.9210 C.ar      12 UNK        -0.0804 
     12 C12        31.6461   23.0283    4.8946 C.ar      12 UNK        -0.0824 
     13 C13        30.6132   22.1601    4.5236 C.ar      12 UNK        -0.0762 
     14 C14        30.3471   21.9473    3.1658 C.ar      12 UNK        -0.0782 
     15 C15        29.7807   21.4601    5.5914 C.3       12 UNK         0.0230 
     16 S16        28.0175   21.9216    5.5226 S.3       12 UNK        -0.2608 
     17 C17        28.0833   23.7284    5.7847 C.3       12 UNK        -0.0989 
     18 CA         28.0430   24.5167    4.4464 C.3       5 UNK         0.0716 
     19 N          26.8836   24.1980    3.6100 N.am      5 UNK        -0.4135 
     20 C          25.6012   24.5092    3.8367 C.2       4 UNK         0.5031 
     21 O          25.1864   25.0856    4.8444 O.2       4 UNK        -0.5229 
     22 CA         24.6217   24.1305    2.7064 C.3       4 UNK         0.0329 
     23 CB         23.2526   23.7023    3.2651 C.3       4 UNK        -0.2001 
     24 N          24.4189   25.1978    1.7165 N.am      4 UNK        -0.4303 
     25 C          25.3738   25.8629    1.0503 C.2       3 UNK         0.5044 
     26 O          26.5823   25.6898    1.2224 O.2       3 UNK        -0.5152 
     27 CA         24.9065   26.8758   -0.0043 C.3       3 UNK         0.0319 
     28 CB         24.0674   28.0156    0.6008 C.3       3 UNK        -0.2001 
     29 N          26.0942   27.4316   -0.6448 N.am      3 UNK        -0.4354 
     30 C          26.2549   27.6621   -1.9507 C.2       2 UNK         0.4964 
     31 O          25.3568   27.5538   -2.7864 O.2       2 UNK        -0.5047 
     32 CA         27.6644   28.0698   -2.4044 C.3       2 UNK         0.0288 
     33 CB         27.8315   29.5967   -2.3261 C.3       2 UNK        -0.2113 
     34 N          28.7027   27.4382   -1.5872 N.am      2 UNK        -0.4145 
     35 C          29.2958   26.2700   -1.8618 C.2       1 UNK         0.5006 
     36 O          29.0106   25.5691   -2.8374 O.2       1 UNK        -0.5103 
     37 C          28.2441   26.0375    4.6214 C.2       5 UNK         0.5055 
     38 O          28.5570   26.4924    5.7222 O.2       5 UNK        -0.5220 
     39 N          28.0759   26.7975    3.5318 N.am      6 UNK        -0.4450 
     40 CA         28.3597   28.2270    3.4673 C.3       6 UNK         0.0367 
     41 CB         27.0556   29.0252    3.6143 C.3       6 UNK        -0.1929 
     42 C          29.0424   28.5163    2.1298 C.2       6 UNK         0.5070 
     43 O          28.4716   28.2189    1.0784 O.2       6 UNK        -0.5237 
     44 N          30.2463   29.0846    2.1883 N.am      7 UNK        -0.4739 
     45 CA         31.0281   29.5393    1.0419 C.3       7 UNK         0.0276 
     46 CB         32.3932   28.8311    1.0814 C.3       7 UNK        -0.1927 
     47 C          31.1795   31.0668    1.1150 C.2       7 UNK         0.5013 
     48 O          30.7340   31.6845    2.0866 O.2       7 UNK        -0.5193 
     49 N          31.8008   31.6570    0.0848 N.am      8 UNK        -0.4253 
     50 CA         32.0630   33.0950   -0.0386 C.3       8 UNK         0.0242 
     51 CB         32.6594   33.3791   -1.4291 C.3       8 UNK        -0.2000 
     52 C          32.9734   33.6143    1.0915 C.2       8 UNK         0.4948 
     53 O          34.1976   33.5346    0.9743 O.2       8 UNK        -0.5275 
     54 N          32.3407   34.0931    2.1733 N.am      9 UNK        -0.4246 
     55 CA         32.9347   34.5340    3.4407 C.3       9 UNK         0.0261 
     56 CB         33.7531   35.8282    3.2401 C.3       9 UNK        -0.1959 
     57 C          33.7298   33.4208    4.1563 C.2       9 UNK         0.5033 
     58 O          34.7728   33.7038    4.7508 O.2       9 UNK        -0.5390 
     59 N          33.2340   32.1770    4.0917 N.am      10 UNK        -0.4215 
     60 CA         33.8815   30.9963    4.6624 C.3       10 UNK         0.0240 
     61 CB         34.9883   30.4992    3.7096 C.3       10 UNK        -0.1982 
     62 C          32.8503   29.9020    4.9699 C.2       10 UNK         0.4970 
     63 O          31.6992   29.9961    4.5392 O.2       10 UNK        -0.4916 
     64 N          33.2956   28.8892    5.7224 N.am      11 UNK        -0.4279 
     65 CA         32.5445   27.7013    6.1747 C.3       11 UNK         0.1003 
     66 C          31.4837   27.9605    7.2855 C.2       11 UNK         0.5709 
     67 N          31.1507   29.2002    7.6235 N.am      11 UNK        -0.7358 
     68 O          31.0014   27.0134    7.9013 O.2       11 UNK        -0.4999 
     69 C69        31.9665   26.8399    5.0150 C.3       12 UNK        -0.0954 
     70 S70        33.2392   26.3265    3.8142 S.3       12 UNK        -0.2268 
     71 C71        33.5516   24.6050    4.3194 C.3       12 UNK         0.0203 
     72 H72        33.1981   24.6645   -4.1806 H         1 UNK         0.0888 
     73 H73        34.3306   24.7417   -2.8277 H         1 UNK         0.0888 
     74 H74        33.0531   23.5244   -2.8412 H         1 UNK         0.0888 
     75 H75        31.3061   24.0442   -1.5318 H         1 UNK         0.3017 
     76 H76        30.9030   26.7578   -0.5648 H         1 UNK         0.0873 
     77 H77        30.6887   25.1618    1.1414 H         1 UNK         0.0745 
     78 H78        29.0874   25.6950    0.8244 H         1 UNK         0.0745 
     79 H79        30.5619   21.3626    0.5203 H         1 UNK         0.0705 
     80 H80        31.6375   22.6655    0.0944 H         1 UNK         0.0705 
     81 H81        32.7315   23.9535    1.8172 H         1 UNK         0.1334 
     82 H82        31.8543   23.2004    5.9418 H         1 UNK         0.1417 
     83 H83        29.5399   21.2889    2.8742 H         1 UNK         0.1562 
     84 H84        30.1638   21.6752    6.5902 H         1 UNK         0.0748 
     85 H85        29.8674   20.3811    5.4571 H         1 UNK         0.0748 
     86 H86        28.9862   23.9697    6.3493 H         1 UNK         0.0940 
     87 H87        27.2446   24.0170    6.4205 H         1 UNK         0.0940 
     88 H88        28.9062   24.2080    3.8585 H         1 UNK         0.0703 
     89 H89        27.1080   23.7960    2.7102 H         1 UNK         0.3081 
     90 H90        25.0401   23.2728    2.1754 H         1 UNK         0.0719 
     91 H91        22.7350   24.5325    3.7476 H         1 UNK         0.0809 
     92 H92        22.6050   23.3137    2.4789 H         1 UNK         0.0809 
     93 H93        23.3651   22.9126    4.0093 H         1 UNK         0.0809 
     94 H94        23.4572   25.4258    1.5115 H         1 UNK         0.2990 
     95 H95        24.3073   26.3319   -0.7374 H         1 UNK         0.0690 
     96 H96        23.7585   28.7240   -0.1681 H         1 UNK         0.0788 
     97 H97        24.6215   28.5707    1.3563 H         1 UNK         0.0788 
     98 H98        23.1588   27.6383    1.0708 H         1 UNK         0.0788 
     99 H99        26.9034   27.4966   -0.0325 H         1 UNK         0.2993 
    100 H100       27.7823   27.7644   -3.4466 H         1 UNK         0.0949 
    101 H101       27.0777   30.1035   -2.9303 H         1 UNK         0.0767 
    102 H102       27.7313   29.9622   -1.3028 H         1 UNK         0.0767 
    103 H103       28.8079   29.9073   -2.6984 H         1 UNK         0.0767 
    104 H104       28.8871   27.8779   -0.6881 H         1 UNK         0.3013 
    105 H105       27.7753   26.3703    2.6578 H         1 UNK         0.3121 
    106 H106       29.0364   28.5183    4.2741 H         1 UNK         0.0774 
    107 H107       26.5848   28.8382    4.5794 H         1 UNK         0.0815 
    108 H108       27.2443   30.0971    3.5431 H         1 UNK         0.0815 
    109 H109       26.3396   28.7645    2.8366 H         1 UNK         0.0815 
    110 H110       30.6160   29.3780    3.0906 H         1 UNK         0.2987 
    111 H111       30.5249   29.3008    0.1031 H         1 UNK         0.0949 
    112 H112       33.0269   29.1222    0.2432 H         1 UNK         0.0806 
    113 H113       32.9316   29.0564    2.0002 H         1 UNK         0.0806 
    114 H114       32.2799   27.7484    1.0382 H         1 UNK         0.0806 
    115 H115       32.1549   31.0769   -0.6618 H         1 UNK         0.3010 
    116 H116       31.1061   33.6181    0.0238 H         1 UNK         0.0829 
    117 H117       31.9680   33.0973   -2.2235 H         1 UNK         0.0813 
    118 H118       32.8743   34.4417   -1.5504 H         1 UNK         0.0813 
    119 H119       33.5933   32.8385   -1.5891 H         1 UNK         0.0813 
    120 H120       31.3307   34.0265    2.1759 H         1 UNK         0.3038 
    121 H121       32.0994   34.7739    4.1002 H         1 UNK         0.0769 
    122 H122       34.6435   35.6542    2.6351 H         1 UNK         0.0811 
    123 H123       34.0850   36.2338    4.1967 H         1 UNK         0.0811 
    124 H124       33.1605   36.6011    2.7508 H         1 UNK         0.0811 
    125 H125       32.3445   32.0049    3.6312 H         1 UNK         0.3204 
    126 H126       34.3355   31.2715    5.6170 H         1 UNK         0.0748 
    127 H127       35.8194   31.2041    3.6777 H         1 UNK         0.0771 
    128 H128       35.3977   29.5383    4.0235 H         1 UNK         0.0771 
    129 H129       34.6237   30.3853    2.6895 H         1 UNK         0.0771 
    130 H130       34.2528   28.9229    6.0415 H         1 UNK         0.2980 
    131 H131       33.2970   27.0862    6.6698 H         1 UNK         0.0545 
    132 H132       30.4798   29.3461    8.3608 H         1 UNK         0.3459 
    133 H133       31.5226   29.9840    7.1127 H         1 UNK         0.3459 
    134 H134       31.4707   25.9505    5.4068 H         1 UNK         0.0616 
    135 H135       31.1971   27.3901    4.4744 H         1 UNK         0.0616 
    136 H136       33.7316   24.5722    5.3951 H         1 UNK         0.0634 
    137 H137       34.4714   24.2630    3.8433 H         1 UNK         0.0634 
@<TRIPOS>BOND
     1    1    2 1    
     2    1   72 1    
     3    1   73 1    
     4    1   74 1    
     5    2    3 2    
     6    2    4 am   BACKBONE|DICT|INTERRES
     7    4    5 1    
     8    4   75 1    
     9    5    6 1    
    10    5   35 1    
    11    5   76 1    
    12    6    7 1    
    13    6   77 1    
    14    6   78 1    
    15    7    8 1    
    16    8    9 1    
    17    8   79 1    
    18    8   80 1    
    19    9   10 ar   
    20    9   14 ar   
    21   10   11 ar   
    22   10   81 1    
    23   11   12 ar   
    24   11   71 1    
    25   12   13 ar   
    26   12   82 1    
    27   13   14 ar   
    28   13   15 1    
    29   14   83 1    
    30   15   16 1    
    31   15   84 1    
    32   15   85 1    
    33   16   17 1    
    34   17   18 1    
    35   17   86 1    
    36   17   87 1    
    37   18   19 1    
    38   18   37 1    
    39   18   88 1    
    40   19   20 am   BACKBONE|DICT|INTERRES
    41   19   89 1    
    42   20   21 2    
    43   20   22 1    
    44   22   23 1    
    45   22   24 1    
    46   22   90 1    
    47   23   91 1    
    48   23   92 1    
    49   23   93 1    
    50   24   25 am   BACKBONE|DICT|INTERRES
    51   24   94 1    
    52   25   26 2    
    53   25   27 1    
    54   27   28 1    
    55   27   29 1    
    56   27   95 1    
    57   28   96 1    
    58   28   97 1    
    59   28   98 1    
    60   29   30 am   BACKBONE|DICT|INTERRES
    61   29   99 1    
    62   30   31 2    
    63   30   32 1    
    64   32   33 1    
    65   32   34 1    
    66   32  100 1    
    67   33  101 1    
    68   33  102 1    
    69   33  103 1    
    70   34   35 am   BACKBONE|DICT|INTERRES
    71   34  104 1    
    72   35   36 2    
    73   37   38 2    
    74   37   39 am   BACKBONE|DICT|INTERRES
    75   39   40 1    
    76   39  105 1    
    77   40   41 1    
    78   40   42 1    
    79   40  106 1    
    80   41  107 1    
    81   41  108 1    
    82   41  109 1    
    83   42   43 2    
    84   42   44 am   BACKBONE|DICT|INTERRES
    85   44   45 1    
    86   44  110 1    
    87   45   46 1    
    88   45   47 1    
    89   45  111 1    
    90   46  112 1    
    91   46  113 1    
    92   46  114 1    
    93   47   48 2    
    94   47   49 am   BACKBONE|DICT|INTERRES
    95   49   50 1    
    96   49  115 1    
    97   50   51 1    
    98   50   52 1    
    99   50  116 1    
   100   51  117 1    
   101   51  118 1    
   102   51  119 1    
   103   52   53 2    
   104   52   54 am   BACKBONE|DICT|INTERRES
   105   54   55 1    
   106   54  120 1    
   107   55   56 1    
   108   55   57 1    
   109   55  121 1    
   110   56  122 1    
   111   56  123 1    
   112   56  124 1    
   113   57   58 2    
   114   57   59 am   BACKBONE|DICT|INTERRES
   115   59   60 1    
   116   59  125 1    
   117   60   61 1    
   118   60   62 1    
   119   60  126 1    
   120   61  127 1    
   121   61  128 1    
   122   61  129 1    
   123   62   63 2    
   124   62   64 am   BACKBONE|DICT|INTERRES
   125   64   65 1    
   126   64  130 1    
   127   65   66 1    
   128   65   69 1    
   129   65  131 1    
   130   66   67 am   BACKBONE|DICT|INTERRES
   131   66   68 2    
   132   67  132 1    
   133   67  133 1    
   134   69   70 1    
   135   69  134 1    
   136   69  135 1    
   137   70   71 1    
   138   71  136 1    
   139   71  137 1    
@<TRIPOS>SUBSTRUCTURE
     1 UNK         1 GROUP             0       ****    0 ROOT    
