@<TRIPOS>MOLECULE
3R136
137   139    1
SMALL
USER_CHARGES


@<TRIPOS>ATOM
      1 CA         31.4099   22.6242   -2.1798 C.3       0 UNK        -0.1979 
      2 C          30.4264   22.5390   -1.0236 C.2       0 UNK         0.4864 
      3 O          29.7251   23.5130   -0.7456 O.2       0 UNK        -0.5359 
      4 N          30.3618   21.3879   -0.3418 N.am      1 UNK        -0.4318 
      5 CA         29.4593   21.1591    0.7889 C.3       1 UNK         0.0824 
      6 C6         29.8144   19.8575    1.5519 C.3       12 UNK        -0.0944 
      7 S7         29.0619   19.7577    3.2139 S.3       12 UNK        -0.2672 
      8 C8         30.3161   20.5716    4.2619 C.3       12 UNK         0.0333 
      9 C9         30.4122   22.0575    3.9500 C.ar      12 UNK        -0.0807 
     10 C10        31.5313   22.5739    3.2874 C.ar      12 UNK        -0.0894 
     11 C11        31.5772   23.9172    2.8982 C.ar      12 UNK        -0.0804 
     12 C12        30.4848   24.7440    3.1941 C.ar      12 UNK        -0.0824 
     13 C13        29.3764   24.2466    3.8837 C.ar      12 UNK        -0.0762 
     14 C14        29.3467   22.9046    4.2663 C.ar      12 UNK        -0.0782 
     15 C15        28.2010   25.1598    4.1817 C.3       12 UNK         0.0230 
     16 S16        27.1499   25.3254    2.7085 S.3       12 UNK        -0.2608 
     17 C17        26.7688   27.1083    2.7450 C.3       12 UNK        -0.0989 
     18 CA         27.8978   27.9829    2.1336 C.3       5 UNK         0.0716 
     19 N          28.2793   27.5138    0.7962 N.am      5 UNK        -0.4135 
     20 C          29.4248   27.7689    0.1519 C.2       4 UNK         0.5031 
     21 O          30.2904   28.5233    0.5974 O.2       4 UNK        -0.5229 
     22 CA         29.6540   27.0771   -1.2060 C.3       4 UNK         0.0329 
     23 CB         31.0963   26.5527   -1.3273 C.3       4 UNK        -0.2001 
     24 N          28.7334   25.9636   -1.4569 N.am      4 UNK        -0.4303 
     25 C          27.5246   26.0629   -2.0242 C.2       3 UNK         0.5044 
     26 O          27.0109   27.1341   -2.3458 O.2       3 UNK        -0.5152 
     27 CA         26.7490   24.7578   -2.2517 C.3       3 UNK         0.0319 
     28 CB         27.3241   23.9740   -3.4439 C.3       3 UNK        -0.2001 
     29 N          26.7493   23.9103   -1.0553 N.am      3 UNK        -0.4354 
     30 C          25.6620   23.3081   -0.5479 C.2       2 UNK         0.4964 
     31 O          24.5402   23.4068   -1.0488 O.2       2 UNK        -0.5047 
     32 CA         25.8277   22.4746    0.7425 C.3       2 UNK         0.0288 
     33 CB         24.8781   21.2574    0.7968 C.3       2 UNK        -0.2113 
     34 N          27.2139   22.0875    1.0311 N.am      2 UNK        -0.4145 
     35 C          27.9846   21.2298    0.3448 C.2       1 UNK         0.5006 
     36 O          27.6046   20.5523   -0.6134 O.2       1 UNK        -0.5103 
     37 C          27.5439   29.4895    2.1596 C.2       5 UNK         0.5055 
     38 O          26.4606   29.8641    2.6152 O.2       5 UNK        -0.5220 
     39 N          28.4586   30.3383    1.6764 N.am      6 UNK        -0.4450 
     40 CA         28.3433   31.7969    1.6117 C.3       6 UNK         0.0367 
     41 CB         29.3047   32.3214    0.5280 C.3       6 UNK        -0.1929 
     42 C          28.5927   32.4529    2.9833 C.2       6 UNK         0.5070 
     43 O          29.5136   33.2594    3.1218 O.2       6 UNK        -0.5237 
     44 N          27.7808   32.0802    3.9824 N.am      7 UNK        -0.4739 
     45 CA         27.8531   32.5013    5.3862 C.3       7 UNK         0.0276 
     46 CB         27.4024   33.9733    5.5328 C.3       7 UNK        -0.1927 
     47 C          29.2414   32.2019    5.9866 C.2       7 UNK         0.5013 
     48 O          29.5484   31.0318    6.2182 O.2       7 UNK        -0.5193 
     49 N          30.0492   33.2481    6.1980 N.am      8 UNK        -0.4253 
     50 CA         31.4368   33.1713    6.6575 C.3       8 UNK         0.0242 
     51 CB         31.5617   33.9601    7.9743 C.3       8 UNK        -0.2000 
     52 C          32.4337   33.6916    5.6028 C.2       8 UNK         0.4948 
     53 O          33.6209   33.7953    5.9152 O.2       8 UNK        -0.5275 
     54 N          31.9687   34.0228    4.3866 N.am      9 UNK        -0.4246 
     55 CA         32.8098   34.5398    3.2993 C.3       9 UNK         0.0261 
     56 CB         31.9432   35.3444    2.3157 C.3       9 UNK        -0.1959 
     57 C          33.5831   33.4356    2.5560 C.2       9 UNK         0.5033 
     58 O          34.5529   33.7473    1.8626 O.2       9 UNK        -0.5390 
     59 N          33.1545   32.1788    2.7091 N.am      10 UNK        -0.4215 
     60 CA         33.7957   30.9827    2.1760 C.3       10 UNK         0.0240 
     61 CB         33.1895   30.6373    0.8044 C.3       10 UNK        -0.1982 
     62 C          33.5927   29.8406    3.1776 C.2       10 UNK         0.4970 
     63 O          32.6702   29.9079    3.9954 O.2       10 UNK        -0.4916 
     64 N          34.4518   28.8184    3.0787 N.am      11 UNK        -0.4279 
     65 CA         34.4713   27.6162    3.9310 C.3       11 UNK         0.1003 
     66 C          34.7940   27.9345    5.4251 C.2       11 UNK         0.5709 
     67 N          34.4475   27.0616    6.3627 N.am      11 UNK        -0.7358 
     68 O          35.4170   28.9467    5.7431 O.2       11 UNK        -0.4999 
     69 C69        33.2151   26.7169    3.7263 C.3       12 UNK        -0.0954 
     70 S70        32.9802   26.2242    1.9834 S.3       12 UNK        -0.2268 
     71 C71        32.8045   24.4111    2.1267 C.3       12 UNK         0.0203 
     72 H72        32.1316   23.4197   -1.9967 H         1 UNK         0.0888 
     73 H73        31.9579   21.6926   -2.3186 H         1 UNK         0.0888 
     74 H74        30.8813   22.8498   -3.1053 H         1 UNK         0.0888 
     75 H75        30.9276   20.6021   -0.6280 H         1 UNK         0.3017 
     76 H76        29.6274   22.0021    1.4562 H         1 UNK         0.0873 
     77 H77        30.8962   19.7753    1.6693 H         1 UNK         0.0745 
     78 H78        29.5106   18.9803    0.9775 H         1 UNK         0.0745 
     79 H79        31.2798   20.0768    4.1313 H         1 UNK         0.0705 
     80 H80        30.0424   20.4408    5.3098 H         1 UNK         0.0705 
     81 H81        32.3541   21.9181    3.0367 H         1 UNK         0.1334 
     82 H82        30.4756   25.7777    2.8797 H         1 UNK         0.1417 
     83 H83        28.4784   22.5069    4.7747 H         1 UNK         0.1562 
     84 H84        28.5747   26.1334    4.5020 H         1 UNK         0.0748 
     85 H85        27.6041   24.7730    5.0091 H         1 UNK         0.0748 
     86 H86        26.5621   27.4046    3.7755 H         1 UNK         0.0940 
     87 H87        25.8354   27.2563    2.1980 H         1 UNK         0.0940 
     88 H88        28.7757   27.8734    2.7738 H         1 UNK         0.0703 
     89 H89        27.6206   26.8965    0.3467 H         1 UNK         0.3081 
     90 H90        29.5099   27.8384   -1.9753 H         1 UNK         0.0719 
     91 H91        31.3131   25.8033   -0.5652 H         1 UNK         0.0809 
     92 H92        31.2731   26.0989   -2.3023 H         1 UNK         0.0809 
     93 H93        31.8234   27.3572   -1.2088 H         1 UNK         0.0809 
     94 H94        29.0892   25.0392   -1.2069 H         1 UNK         0.2990 
     95 H95        25.7267   25.0474   -2.5043 H         1 UNK         0.0690 
     96 H96        26.7195   23.0940   -3.6642 H         1 UNK         0.0788 
     97 H97        28.3439   23.6380   -3.2547 H         1 UNK         0.0788 
     98 H98        27.3428   24.5890   -4.3447 H         1 UNK         0.0788 
     99 H99        27.6468   23.7666   -0.6055 H         1 UNK         0.2993 
    100 H100       25.5317   23.1396    1.5544 H         1 UNK         0.0949 
    101 H101       23.8348   21.5744    0.7742 H         1 UNK         0.0767 
    102 H102       25.0282   20.5852   -0.0484 H         1 UNK         0.0767 
    103 H103       25.0202   20.6837    1.7127 H         1 UNK         0.0767 
    104 H104       27.6435   22.5980    1.7915 H         1 UNK         0.3013 
    105 H105       29.3221   29.9271    1.3262 H         1 UNK         0.3121 
    106 H106       27.3263   32.0549    1.3091 H         1 UNK         0.0774 
    107 H107       29.2059   33.4011    0.4091 H         1 UNK         0.0815 
    108 H108       30.3460   32.1165    0.7785 H         1 UNK         0.0815 
    109 H109       29.0971   31.8689   -0.4417 H         1 UNK         0.0815 
    110 H110       27.0888   31.3690    3.7634 H         1 UNK         0.2987 
    111 H111       27.1433   31.8824    5.9376 H         1 UNK         0.0949 
    112 H112       28.0151   34.6601    4.9479 H         1 UNK         0.0806 
    113 H113       26.3715   34.0965    5.2007 H         1 UNK         0.0806 
    114 H114       27.4399   34.2955    6.5744 H         1 UNK         0.0806 
    115 H115       29.7064   34.1673    5.9560 H         1 UNK         0.3010 
    116 H116       31.7143   32.1337    6.8551 H         1 UNK         0.0829 
    117 H117       32.5703   33.8877    8.3836 H         1 UNK         0.0813 
    118 H118       30.8801   33.5740    8.7324 H         1 UNK         0.0813 
    119 H119       31.3416   35.0189    7.8329 H         1 UNK         0.0813 
    120 H120       30.9951   33.8423    4.1482 H         1 UNK         0.3038 
    121 H121       33.5476   35.2224    3.7268 H         1 UNK         0.0769 
    122 H122       32.5631   35.8301    1.5611 H         1 UNK         0.0811 
    123 H123       31.3812   36.1265    2.8261 H         1 UNK         0.0811 
    124 H124       31.2324   34.7088    1.7872 H         1 UNK         0.0811 
    125 H125       32.3868   31.9933    3.3428 H         1 UNK         0.3204 
    126 H126       34.8685   31.1582    2.0698 H         1 UNK         0.0748 
    127 H127       32.1193   30.4450    0.8789 H         1 UNK         0.0771 
    128 H128       33.3354   31.4474    0.0897 H         1 UNK         0.0771 
    129 H129       33.6501   29.7432    0.3825 H         1 UNK         0.0771 
    130 H130       35.1827   28.8650    2.3844 H         1 UNK         0.2980 
    131 H131       35.3336   27.0431    3.5892 H         1 UNK         0.0545 
    132 H132       34.6787   27.2606    7.3233 H         1 UNK         0.3459 
    133 H133       33.9564   26.2134    6.1306 H         1 UNK         0.3459 
    134 H134       33.2928   25.8096    4.3262 H         1 UNK         0.0616 
    135 H135       32.3127   27.2280    4.0647 H         1 UNK         0.0616 
    136 H136       33.7105   24.0138    2.5867 H         1 UNK         0.0634 
    137 H137       32.7609   23.9968    1.1185 H         1 UNK         0.0634 
@<TRIPOS>BOND
     1    1    2 1    
     2    1   72 1    
     3    1   73 1    
     4    1   74 1    
     5    2    3 2    
     6    2    4 am   BACKBONE|DICT|INTERRES
     7    4    5 1    
     8    4   75 1    
     9    5    6 1    
    10    5   35 1    
    11    5   76 1    
    12    6    7 1    
    13    6   77 1    
    14    6   78 1    
    15    7    8 1    
    16    8    9 1    
    17    8   79 1    
    18    8   80 1    
    19    9   10 ar   
    20    9   14 ar   
    21   10   11 ar   
    22   10   81 1    
    23   11   12 ar   
    24   11   71 1    
    25   12   13 ar   
    26   12   82 1    
    27   13   14 ar   
    28   13   15 1    
    29   14   83 1    
    30   15   16 1    
    31   15   84 1    
    32   15   85 1    
    33   16   17 1    
    34   17   18 1    
    35   17   86 1    
    36   17   87 1    
    37   18   19 1    
    38   18   37 1    
    39   18   88 1    
    40   19   20 am   BACKBONE|DICT|INTERRES
    41   19   89 1    
    42   20   21 2    
    43   20   22 1    
    44   22   23 1    
    45   22   24 1    
    46   22   90 1    
    47   23   91 1    
    48   23   92 1    
    49   23   93 1    
    50   24   25 am   BACKBONE|DICT|INTERRES
    51   24   94 1    
    52   25   26 2    
    53   25   27 1    
    54   27   28 1    
    55   27   29 1    
    56   27   95 1    
    57   28   96 1    
    58   28   97 1    
    59   28   98 1    
    60   29   30 am   BACKBONE|DICT|INTERRES
    61   29   99 1    
    62   30   31 2    
    63   30   32 1    
    64   32   33 1    
    65   32   34 1    
    66   32  100 1    
    67   33  101 1    
    68   33  102 1    
    69   33  103 1    
    70   34   35 am   BACKBONE|DICT|INTERRES
    71   34  104 1    
    72   35   36 2    
    73   37   38 2    
    74   37   39 am   BACKBONE|DICT|INTERRES
    75   39   40 1    
    76   39  105 1    
    77   40   41 1    
    78   40   42 1    
    79   40  106 1    
    80   41  107 1    
    81   41  108 1    
    82   41  109 1    
    83   42   43 2    
    84   42   44 am   BACKBONE|DICT|INTERRES
    85   44   45 1    
    86   44  110 1    
    87   45   46 1    
    88   45   47 1    
    89   45  111 1    
    90   46  112 1    
    91   46  113 1    
    92   46  114 1    
    93   47   48 2    
    94   47   49 am   BACKBONE|DICT|INTERRES
    95   49   50 1    
    96   49  115 1    
    97   50   51 1    
    98   50   52 1    
    99   50  116 1    
   100   51  117 1    
   101   51  118 1    
   102   51  119 1    
   103   52   53 2    
   104   52   54 am   BACKBONE|DICT|INTERRES
   105   54   55 1    
   106   54  120 1    
   107   55   56 1    
   108   55   57 1    
   109   55  121 1    
   110   56  122 1    
   111   56  123 1    
   112   56  124 1    
   113   57   58 2    
   114   57   59 am   BACKBONE|DICT|INTERRES
   115   59   60 1    
   116   59  125 1    
   117   60   61 1    
   118   60   62 1    
   119   60  126 1    
   120   61  127 1    
   121   61  128 1    
   122   61  129 1    
   123   62   63 2    
   124   62   64 am   BACKBONE|DICT|INTERRES
   125   64   65 1    
   126   64  130 1    
   127   65   66 1    
   128   65   69 1    
   129   65  131 1    
   130   66   67 am   BACKBONE|DICT|INTERRES
   131   66   68 2    
   132   67  132 1    
   133   67  133 1    
   134   69   70 1    
   135   69  134 1    
   136   69  135 1    
   137   70   71 1    
   138   71  136 1    
   139   71  137 1    
@<TRIPOS>SUBSTRUCTURE
     1 UNK         1 GROUP             0       ****    0 ROOT    
