@<TRIPOS>MOLECULE
3R136
137   139    1
SMALL
USER_CHARGES


@<TRIPOS>ATOM
      1 CA         30.1584   25.5903   -6.4137 C.3       0 UNK        -0.1979 
      2 C          29.5173   25.6736   -5.0367 C.2       0 UNK         0.4864 
      3 O          28.4492   26.2716   -4.8920 O.2       0 UNK        -0.5359 
      4 N          30.1520   25.0728   -4.0206 N.am      1 UNK        -0.4318 
      5 CA         29.6835   25.0365   -2.6316 C.3       1 UNK         0.0824 
      6 C6         30.8673   24.8432   -1.6499 C.3       12 UNK        -0.0944 
      7 S7         30.4442   25.2868    0.0701 S.3       12 UNK        -0.2672 
      8 C8         30.9249   23.7656    0.9391 C.3       12 UNK         0.0333 
      9 C9         30.8402   23.9425    2.4465 C.ar      12 UNK        -0.0807 
     10 C10        31.9018   24.5263    3.1443 C.ar      12 UNK        -0.0894 
     11 C11        31.8425   24.6745    4.5331 C.ar      12 UNK        -0.0804 
     12 C12        30.7079   24.2416    5.2249 C.ar      12 UNK        -0.0824 
     13 C13        29.6380   23.6612    4.5363 C.ar      12 UNK        -0.0762 
     14 C14        29.7115   23.5095    3.1476 C.ar      12 UNK        -0.0782 
     15 C15        28.3990   23.2024    5.2897 C.3       12 UNK         0.0230 
     16 S16        26.9433   24.2078    4.8648 S.3       12 UNK        -0.2608 
     17 C17        27.3980   25.8474    5.5327 C.3       12 UNK        -0.0989 
     18 CA         28.0947   26.7720    4.4984 C.3       5 UNK         0.0716 
     19 N          27.3709   26.8345    3.2303 N.am      5 UNK        -0.4135 
     20 C          27.7610   27.4601    2.1129 C.2       4 UNK         0.5031 
     21 O          28.7775   28.1574    2.0258 O.2       4 UNK        -0.5229 
     22 CA         26.8606   27.2372    0.8819 C.3       4 UNK         0.0329 
     23 CB         27.4298   27.8690   -0.3995 C.3       4 UNK        -0.2001 
     24 N          26.6429   25.8087    0.6371 N.am      4 UNK        -0.4303 
     25 C          25.7256   25.0414    1.2419 C.2       3 UNK         0.5044 
     26 O          24.9442   25.4724    2.0916 O.2       3 UNK        -0.5152 
     27 CA         25.7099   23.5471    0.8568 C.3       3 UNK         0.0319 
     28 CB         24.3762   22.8514    1.2019 C.3       3 UNK        -0.2001 
     29 N          26.0868   23.3095   -0.5437 N.am      3 UNK        -0.4354 
     30 C          25.4564   23.7478   -1.6442 C.2       2 UNK         0.4964 
     31 O          24.4015   24.3843   -1.6304 O.2       2 UNK        -0.5047 
     32 CA         26.1715   23.4704   -2.9805 C.3       2 UNK         0.0288 
     33 CB         25.2861   23.7720   -4.2042 C.3       2 UNK        -0.2113 
     34 N          27.3999   24.2613   -3.0824 N.am      2 UNK        -0.4145 
     35 C          28.5534   23.9963   -2.4565 C.2       1 UNK         0.5006 
     36 O          28.7275   22.9867   -1.7697 O.2       1 UNK        -0.5103 
     37 C          28.3043   28.1812    5.0761 C.2       5 UNK         0.5055 
     38 O          27.3199   28.8695    5.3548 O.2       5 UNK        -0.5220 
     39 N          29.5756   28.5846    5.2077 N.am      6 UNK        -0.4450 
     40 CA         30.0439   29.9100    5.6332 C.3       6 UNK         0.0367 
     41 CB         29.5999   30.2200    7.0788 C.3       6 UNK        -0.1929 
     42 C          29.6889   31.0550    4.6553 C.2       6 UNK         0.5070 
     43 O          29.8263   32.2202    5.0327 O.2       6 UNK        -0.5237 
     44 N          29.2420   30.7270    3.4326 N.am      7 UNK        -0.4739 
     45 CA         28.8207   31.6868    2.4096 C.3       7 UNK         0.0276 
     46 CB         27.3632   31.4076    2.0070 C.3       7 UNK        -0.1927 
     47 C          29.7448   31.6562    1.1851 C.2       7 UNK         0.5013 
     48 O          30.0932   32.7255    0.6824 O.2       7 UNK        -0.5193 
     49 N          30.1447   30.4574    0.7283 N.am      8 UNK        -0.4253 
     50 CA         31.1021   30.2910   -0.3776 C.3       8 UNK         0.0242 
     51 CB         31.0765   28.8407   -0.8836 C.3       8 UNK        -0.2000 
     52 C          32.5366   30.6983    0.0047 C.2       8 UNK         0.4948 
     53 O          33.2813   31.1926   -0.8429 O.2       8 UNK        -0.5275 
     54 N          32.8800   30.4985    1.2780 N.am      9 UNK        -0.4246 
     55 CA         34.0971   30.9357    1.9449 C.3       9 UNK         0.0261 
     56 CB         35.2068   29.8845    1.7640 C.3       9 UNK        -0.1959 
     57 C          33.7231   31.0988    3.4194 C.2       9 UNK         0.5033 
     58 O          32.7957   30.4259    3.8767 O.2       9 UNK        -0.5390 
     59 N          34.4443   31.9543    4.1523 N.am      10 UNK        -0.4215 
     60 CA         34.1928   32.2700    5.5656 C.3       10 UNK         0.0240 
     61 CB         34.8220   33.6395    5.8877 C.3       10 UNK        -0.1982 
     62 C          34.6561   31.1591    6.5355 C.2       10 UNK         0.4970 
     63 O          35.3540   31.4443    7.5109 O.2       10 UNK        -0.4916 
     64 N          34.2784   29.9115    6.2409 N.am      11 UNK        -0.4279 
     65 CA         34.5442   28.7227    7.0568 C.3       11 UNK         0.1003 
     66 C          33.6554   28.6362    8.3307 C.2       11 UNK         0.5709 
     67 N          34.0110   27.7732    9.2735 N.am      11 UNK        -0.7358 
     68 O          32.6484   29.3276    8.4737 O.2       11 UNK        -0.4999 
     69 C69        34.5074   27.4335    6.1939 C.3       12 UNK        -0.0954 
     70 S70        32.9017   27.0839    5.3951 S.3       12 UNK        -0.2268 
     71 C71        33.0180   25.2731    5.2874 C.3       12 UNK         0.0203 
     72 H72        30.3624   26.5913   -6.7929 H         1 UNK         0.0888 
     73 H73        31.0972   25.0372   -6.3940 H         1 UNK         0.0888 
     74 H74        29.4853   25.0919   -7.1108 H         1 UNK         0.0888 
     75 H75        31.0089   24.5701   -4.2049 H         1 UNK         0.3017 
     76 H76        29.2469   26.0134   -2.4137 H         1 UNK         0.0873 
     77 H77        31.2583   23.8253   -1.7025 H         1 UNK         0.0745 
     78 H78        31.6949   25.4928   -1.9397 H         1 UNK         0.0745 
     79 H79        31.9445   23.4946    0.6605 H         1 UNK         0.0705 
     80 H80        30.2850   22.9446    0.6117 H         1 UNK         0.0705 
     81 H81        32.7773   24.8623    2.6052 H         1 UNK         0.1334 
     82 H82        30.6597   24.3579    6.2992 H         1 UNK         0.1417 
     83 H83        28.8847   23.0613    2.6138 H         1 UNK         0.1562 
     84 H84        28.5579   23.2323    6.3688 H         1 UNK         0.0748 
     85 H85        28.1937   22.1607    5.0392 H         1 UNK         0.0748 
     86 H86        28.0312   25.7147    6.4120 H         1 UNK         0.0940 
     87 H87        26.4773   26.3094    5.8952 H         1 UNK         0.0940 
     88 H88        29.0739   26.3509    4.2668 H         1 UNK         0.0703 
     89 H89        26.5094   26.3018    3.1910 H         1 UNK         0.3081 
     90 H90        25.9025   27.7173    1.0923 H         1 UNK         0.0719 
     91 H91        28.3775   27.4091   -0.6715 H         1 UNK         0.0809 
     92 H92        26.7454   27.7482   -1.2394 H         1 UNK         0.0809 
     93 H93        27.6049   28.9380   -0.2765 H         1 UNK         0.0809 
     94 H94        27.2834   25.3631   -0.0022 H         1 UNK         0.2990 
     95 H95        26.4871   23.0780    1.4620 H         1 UNK         0.0690 
     96 H96        24.3972   21.7958    0.9312 H         1 UNK         0.0788 
     97 H97        23.5324   23.3139    0.6891 H         1 UNK         0.0788 
     98 H98        24.1741   22.9060    2.2725 H         1 UNK         0.0788 
     99 H99        26.9785   22.8447   -0.6874 H         1 UNK         0.2993 
    100 H100       26.4268   22.4084   -3.0059 H         1 UNK         0.0949 
    101 H101       24.3605   23.1957   -4.1680 H         1 UNK         0.0767 
    102 H102       25.0136   24.8270   -4.2573 H         1 UNK         0.0767 
    103 H103       25.7936   23.5111   -5.1332 H         1 UNK         0.0767 
    104 H104       27.3662   25.0934   -3.6643 H         1 UNK         0.3013 
    105 H105       30.3103   27.9491    4.9238 H         1 UNK         0.3121 
    106 H106       31.1308   29.8446    5.6516 H         1 UNK         0.0774 
    107 H107       30.1059   31.1086    7.4580 H         1 UNK         0.0815 
    108 H108       28.5276   30.4041    7.1470 H         1 UNK         0.0815 
    109 H109       29.8470   29.4005    7.7537 H         1 UNK         0.0815 
    110 H110       29.1659   29.7449    3.1876 H         1 UNK         0.2987 
    111 H111       28.8589   32.7031    2.8079 H         1 UNK         0.0949 
    112 H112       27.0237   32.1187    1.2526 H         1 UNK         0.0806 
    113 H113       27.2362   30.4085    1.5935 H         1 UNK         0.0806 
    114 H114       26.6950   31.4998    2.8634 H         1 UNK         0.0806 
    115 H115       29.7877   29.6136    1.1689 H         1 UNK         0.3010 
    116 H116       30.7917   30.9397   -1.2002 H         1 UNK         0.0829 
    117 H117       30.1346   28.6158   -1.3806 H         1 UNK         0.0813 
    118 H118       31.8674   28.6614   -1.6134 H         1 UNK         0.0813 
    119 H119       31.2162   28.1291   -0.0691 H         1 UNK         0.0813 
    120 H120       32.1925   30.1231    1.9218 H         1 UNK         0.3038 
    121 H121       34.4140   31.9003    1.5415 H         1 UNK         0.0769 
    122 H122       36.1252   30.1932    2.2652 H         1 UNK         0.0811 
    123 H123       35.4461   29.7378    0.7105 H         1 UNK         0.0811 
    124 H124       34.9156   28.9176    2.1786 H         1 UNK         0.0811 
    125 H125       35.2199   32.4333    3.7165 H         1 UNK         0.3204 
    126 H126       33.1133   32.3676    5.7043 H         1 UNK         0.0748 
    127 H127       34.5981   33.9436    6.9114 H         1 UNK         0.0771 
    128 H128       35.9075   33.6200    5.7821 H         1 UNK         0.0771 
    129 H129       34.4338   34.4190    5.2316 H         1 UNK         0.0771 
    130 H130       33.6730   29.7789    5.4356 H         1 UNK         0.2980 
    131 H131       35.5687   28.8224    7.4210 H         1 UNK         0.0545 
    132 H132       34.8327   27.1978    9.1739 H         1 UNK         0.3459 
    133 H133       33.4454   27.6990   10.1046 H         1 UNK         0.3459 
    134 H134       34.8031   26.5749    6.7994 H         1 UNK         0.0616 
    135 H135       35.2580   27.5041    5.4049 H         1 UNK         0.0616 
    136 H136       33.0703   24.8550    6.2943 H         1 UNK         0.0634 
    137 H137       33.9518   25.0016    4.7915 H         1 UNK         0.0634 
@<TRIPOS>BOND
     1    1    2 1    
     2    1   72 1    
     3    1   73 1    
     4    1   74 1    
     5    2    3 2    
     6    2    4 am   BACKBONE|DICT|INTERRES
     7    4    5 1    
     8    4   75 1    
     9    5    6 1    
    10    5   35 1    
    11    5   76 1    
    12    6    7 1    
    13    6   77 1    
    14    6   78 1    
    15    7    8 1    
    16    8    9 1    
    17    8   79 1    
    18    8   80 1    
    19    9   10 ar   
    20    9   14 ar   
    21   10   11 ar   
    22   10   81 1    
    23   11   12 ar   
    24   11   71 1    
    25   12   13 ar   
    26   12   82 1    
    27   13   14 ar   
    28   13   15 1    
    29   14   83 1    
    30   15   16 1    
    31   15   84 1    
    32   15   85 1    
    33   16   17 1    
    34   17   18 1    
    35   17   86 1    
    36   17   87 1    
    37   18   19 1    
    38   18   37 1    
    39   18   88 1    
    40   19   20 am   BACKBONE|DICT|INTERRES
    41   19   89 1    
    42   20   21 2    
    43   20   22 1    
    44   22   23 1    
    45   22   24 1    
    46   22   90 1    
    47   23   91 1    
    48   23   92 1    
    49   23   93 1    
    50   24   25 am   BACKBONE|DICT|INTERRES
    51   24   94 1    
    52   25   26 2    
    53   25   27 1    
    54   27   28 1    
    55   27   29 1    
    56   27   95 1    
    57   28   96 1    
    58   28   97 1    
    59   28   98 1    
    60   29   30 am   BACKBONE|DICT|INTERRES
    61   29   99 1    
    62   30   31 2    
    63   30   32 1    
    64   32   33 1    
    65   32   34 1    
    66   32  100 1    
    67   33  101 1    
    68   33  102 1    
    69   33  103 1    
    70   34   35 am   BACKBONE|DICT|INTERRES
    71   34  104 1    
    72   35   36 2    
    73   37   38 2    
    74   37   39 am   BACKBONE|DICT|INTERRES
    75   39   40 1    
    76   39  105 1    
    77   40   41 1    
    78   40   42 1    
    79   40  106 1    
    80   41  107 1    
    81   41  108 1    
    82   41  109 1    
    83   42   43 2    
    84   42   44 am   BACKBONE|DICT|INTERRES
    85   44   45 1    
    86   44  110 1    
    87   45   46 1    
    88   45   47 1    
    89   45  111 1    
    90   46  112 1    
    91   46  113 1    
    92   46  114 1    
    93   47   48 2    
    94   47   49 am   BACKBONE|DICT|INTERRES
    95   49   50 1    
    96   49  115 1    
    97   50   51 1    
    98   50   52 1    
    99   50  116 1    
   100   51  117 1    
   101   51  118 1    
   102   51  119 1    
   103   52   53 2    
   104   52   54 am   BACKBONE|DICT|INTERRES
   105   54   55 1    
   106   54  120 1    
   107   55   56 1    
   108   55   57 1    
   109   55  121 1    
   110   56  122 1    
   111   56  123 1    
   112   56  124 1    
   113   57   58 2    
   114   57   59 am   BACKBONE|DICT|INTERRES
   115   59   60 1    
   116   59  125 1    
   117   60   61 1    
   118   60   62 1    
   119   60  126 1    
   120   61  127 1    
   121   61  128 1    
   122   61  129 1    
   123   62   63 2    
   124   62   64 am   BACKBONE|DICT|INTERRES
   125   64   65 1    
   126   64  130 1    
   127   65   66 1    
   128   65   69 1    
   129   65  131 1    
   130   66   67 am   BACKBONE|DICT|INTERRES
   131   66   68 2    
   132   67  132 1    
   133   67  133 1    
   134   69   70 1    
   135   69  134 1    
   136   69  135 1    
   137   70   71 1    
   138   71  136 1    
   139   71  137 1    
@<TRIPOS>SUBSTRUCTURE
     1 UNK         1 GROUP             0       ****    0 ROOT    
