@<TRIPOS>MOLECULE
3R136
137   139    1
SMALL
USER_CHARGES


@<TRIPOS>ATOM
      1 CA         26.6081   21.8233    2.4227 C.3       0 UNK        -0.1979 
      2 C          26.8284   21.2877    1.0155 C.2       0 UNK         0.4864 
      3 O          25.8986   20.7527    0.4117 O.2       0 UNK        -0.5359 
      4 N          28.0525   21.4351    0.4920 N.am      1 UNK        -0.4318 
      5 CA         28.4719   21.0335   -0.8580 C.3       1 UNK         0.0824 
      6 C6         30.0118   21.1359   -1.0397 C.3       12 UNK        -0.0944 
      7 S7         30.7256   22.7048   -0.4165 S.3       12 UNK        -0.2672 
      8 C8         31.6583   22.1208    1.0342 C.3       12 UNK         0.0333 
      9 C9         31.8225   23.2223    2.0703 C.ar      12 UNK        -0.0807 
     10 C10        32.8276   24.1828    1.9306 C.ar      12 UNK        -0.0894 
     11 C11        32.9988   25.1793    2.8979 C.ar      12 UNK        -0.0804 
     12 C12        32.1459   25.2171    4.0072 C.ar      12 UNK        -0.0824 
     13 C13        31.1354   24.2613    4.1579 C.ar      12 UNK        -0.0762 
     14 C14        30.9841   23.2652    3.1873 C.ar      12 UNK        -0.0782 
     15 C15        30.2390   24.2618    5.3903 C.3       12 UNK         0.0230 
     16 S16        28.4740   24.3462    4.9460 S.3       12 UNK        -0.2608 
     17 C17        28.0090   26.0352    5.4561 C.3       12 UNK        -0.0989 
     18 CA         28.7195   27.1843    4.6930 C.3       5 UNK         0.0716 
     19 N          28.7974   26.9314    3.2517 N.am      5 UNK        -0.4135 
     20 C          29.3705   27.7251    2.3379 C.2       4 UNK         0.5031 
     21 O          29.9350   28.7858    2.6014 O.2       4 UNK        -0.5229 
     22 CA         29.2156   27.3132    0.8667 C.3       4 UNK         0.0329 
     23 CB         30.4209   26.4742    0.4211 C.3       4 UNK        -0.2001 
     24 N          27.9785   26.5852    0.5576 N.am      4 UNK        -0.4303 
     25 C          26.7218   26.9704    0.8331 C.2       3 UNK         0.5044 
     26 O          26.4514   27.9753    1.4944 O.2       3 UNK        -0.5152 
     27 CA         25.5751   26.0682    0.3278 C.3       3 UNK         0.0319 
     28 CB         24.3708   26.8971   -0.1663 C.3       3 UNK        -0.2001 
     29 N          25.9769   25.0649   -0.6739 N.am      3 UNK        -0.4354 
     30 C          26.4608   25.2856   -1.9084 C.2       2 UNK         0.4964 
     31 O          26.6145   26.4063   -2.3945 O.2       2 UNK        -0.5047 
     32 CA         26.9033   24.0405   -2.6953 C.3       2 UNK         0.0288 
     33 CB         27.7862   24.3776   -3.9155 C.3       2 UNK        -0.2113 
     34 N          27.6079   23.1182   -1.8035 N.am      2 UNK        -0.4145 
     35 C          27.7154   21.7951   -1.9678 C.2       1 UNK         0.5006 
     36 O          27.2392   21.1770   -2.9220 O.2       1 UNK        -0.5103 
     37 C          28.0376   28.5261    5.0470 C.2       5 UNK         0.5055 
     38 O          28.3489   29.0935    6.0944 O.2       5 UNK        -0.5220 
     39 N          27.1226   28.9949    4.1858 N.am      6 UNK        -0.4450 
     40 CA         26.4335   30.2784    4.3090 C.3       6 UNK         0.0367 
     41 CB         24.9148   30.0382    4.3048 C.3       6 UNK        -0.1929 
     42 C          26.8243   31.2333    3.1717 C.2       6 UNK         0.5070 
     43 O          26.9757   32.4289    3.4215 O.2       6 UNK        -0.5237 
     44 N          26.9647   30.7071    1.9453 N.am      7 UNK        -0.4739 
     45 CA         27.2350   31.4870    0.7339 C.3       7 UNK         0.0276 
     46 CB         26.9634   30.6190   -0.5057 C.3       7 UNK        -0.1927 
     47 C          28.6495   32.0876    0.6779 C.2       7 UNK         0.5013 
     48 O          28.8123   33.1678    0.1085 O.2       7 UNK        -0.5193 
     49 N          29.6339   31.3929    1.2624 N.am      8 UNK        -0.4253 
     50 CA         31.0139   31.8602    1.3990 C.3       8 UNK         0.0242 
     51 CB         31.9768   30.8622    0.7341 C.3       8 UNK        -0.2000 
     52 C          31.3537   32.0635    2.8795 C.2       8 UNK         0.4948 
     53 O          31.8663   33.1249    3.2365 O.2       8 UNK        -0.5275 
     54 N          31.0541   31.0546    3.7126 N.am      9 UNK        -0.4246 
     55 CA         31.1724   30.9808    5.1772 C.3       9 UNK         0.0261 
     56 CB         30.2556   32.0139    5.8592 C.3       9 UNK        -0.1959 
     57 C          32.6064   31.0600    5.7320 C.2       9 UNK         0.5033 
     58 O          32.9584   30.2703    6.6082 O.2       9 UNK        -0.5390 
     59 N          33.4112   31.9907    5.2107 N.am      10 UNK        -0.4215 
     60 CA         34.8197   32.2028    5.5508 C.3       10 UNK         0.0240 
     61 CB         35.1849   33.6618    5.2259 C.3       10 UNK        -0.1982 
     62 C          35.7781   31.2278    4.8384 C.2       10 UNK         0.4970 
     63 O          36.9841   31.2989    5.0812 O.2       10 UNK        -0.4916 
     64 N          35.2493   30.3646    3.9605 N.am      11 UNK        -0.4279 
     65 CA         35.9947   29.3403    3.2188 C.3       11 UNK         0.1003 
     66 C          36.6754   28.2675    4.1181 C.2       11 UNK         0.5709 
     67 N          37.6964   27.5931    3.6058 N.am      11 UNK        -0.7358 
     68 O          36.2741   28.0163    5.2531 O.2       11 UNK        -0.4999 
     69 C69        35.1264   28.7121    2.0946 C.3       12 UNK        -0.0954 
     70 S70        33.5877   27.8985    2.6584 S.3       12 UNK        -0.2268 
     71 C71        34.1479   26.1693    2.7689 C.3       12 UNK         0.0203 
     72 H72        25.8442   22.6003    2.4155 H         1 UNK         0.0888 
     73 H73        26.2726   21.0222    3.0807 H         1 UNK         0.0888 
     74 H74        27.5185   22.2475    2.8454 H         1 UNK         0.0888 
     75 H75        28.7727   21.8854    1.0376 H         1 UNK         0.3017 
     76 H76        28.1996   19.9819   -0.9727 H         1 UNK         0.0873 
     77 H77        30.4882   20.2979   -0.5290 H         1 UNK         0.0745 
     78 H78        30.2913   21.0190   -2.0889 H         1 UNK         0.0745 
     79 H79        31.1518   21.2662    1.4854 H         1 UNK         0.0705 
     80 H80        32.6361   21.7602    0.7110 H         1 UNK         0.0705 
     81 H81        33.4846   24.1425    1.0725 H         1 UNK         0.1334 
     82 H82        32.2858   25.9811    4.7598 H         1 UNK         0.1417 
     83 H83        30.2145   22.5159    3.3121 H         1 UNK         0.1562 
     84 H84        30.4971   25.0776    6.0671 H         1 UNK         0.0748 
     85 H85        30.4132   23.3400    5.9470 H         1 UNK         0.0748 
     86 H86        28.1849   26.1319    6.5296 H         1 UNK         0.0940 
     87 H87        26.9265   26.1055    5.3274 H         1 UNK         0.0940 
     88 H88        29.7496   27.2487    5.0490 H         1 UNK         0.0703 
     89 H89        28.3740   26.0708    2.9388 H         1 UNK         0.3081 
     90 H90        29.2081   28.2305    0.2766 H         1 UNK         0.0719 
     91 H91        30.4555   25.5190    0.9446 H         1 UNK         0.0809 
     92 H92        30.3955   26.2706   -0.6495 H         1 UNK         0.0809 
     93 H93        31.3587   26.9917    0.6292 H         1 UNK         0.0809 
     94 H94        28.0887   25.7513    0.0043 H         1 UNK         0.2990 
     95 H95        25.2438   25.5022    1.1995 H         1 UNK         0.0690 
     96 H96        23.5572   26.2547   -0.5028 H         1 UNK         0.0788 
     97 H97        24.6424   27.5563   -0.9914 H         1 UNK         0.0788 
     98 H98        23.9744   27.5270    0.6312 H         1 UNK         0.0788 
     99 H99        25.8633   24.1023   -0.3864 H         1 UNK         0.2993 
    100 H100       25.9896   23.5595   -3.0519 H         1 UNK         0.0949 
    101 H101       28.0483   23.4817   -4.4784 H         1 UNK         0.0767 
    102 H102       27.2681   25.0472   -4.6033 H         1 UNK         0.0767 
    103 H103       28.7136   24.8671   -3.6153 H         1 UNK         0.0767 
    104 H104       28.0707   23.5267   -1.0049 H         1 UNK         0.3013 
    105 H105       26.9353   28.4659    3.3395 H         1 UNK         0.3121 
    106 H106       26.6969   30.7669    5.2497 H         1 UNK         0.0774 
    107 H107       24.5848   29.5474    3.3880 H         1 UNK         0.0815 
    108 H108       24.3701   30.9798    4.3869 H         1 UNK         0.0815 
    109 H109       24.6120   29.4143    5.1458 H         1 UNK         0.0815 
    110 H110       26.7824   29.7150    1.8077 H         1 UNK         0.2987 
    111 H111       26.5314   32.3225    0.7171 H         1 UNK         0.0949 
    112 H112       27.6335   29.7615   -0.5568 H         1 UNK         0.0806 
    113 H113       25.9402   30.2425   -0.5107 H         1 UNK         0.0806 
    114 H114       27.1012   31.1942   -1.4222 H         1 UNK         0.0806 
    115 H115       29.4070   30.5199    1.7259 H         1 UNK         0.3010 
    116 H116       31.1438   32.8253    0.9044 H         1 UNK         0.0829 
    117 H117       31.8877   29.8613    1.1552 H         1 UNK         0.0813 
    118 H118       31.7861   30.7876   -0.3364 H         1 UNK         0.0813 
    119 H119       33.0131   31.1791    0.8573 H         1 UNK         0.0813 
    120 H120       30.6878   30.2009    3.2884 H         1 UNK         0.3038 
    121 H121       30.8016   29.9898    5.4417 H         1 UNK         0.0769 
    122 H122       30.2719   31.8921    6.9430 H         1 UNK         0.0811 
    123 H123       30.5587   33.0382    5.6412 H         1 UNK         0.0811 
    124 H124       29.2210   31.8943    5.5368 H         1 UNK         0.0811 
    125 H125       33.0092   32.5884    4.4875 H         1 UNK         0.3204 
    126 H126       34.9460   32.0500    6.6247 H         1 UNK         0.0748 
    127 H127       36.2155   33.8829    5.5073 H         1 UNK         0.0771 
    128 H128       35.0836   33.8743    4.1607 H         1 UNK         0.0771 
    129 H129       34.5473   34.3600    5.7688 H         1 UNK         0.0771 
    130 H130       34.2476   30.3420    3.8519 H         1 UNK         0.2980 
    131 H131       36.8095   29.8737    2.7250 H         1 UNK         0.0545 
    132 H132       38.0344   27.7818    2.6750 H         1 UNK         0.3459 
    133 H133       38.1458   26.8868    4.1670 H         1 UNK         0.3459 
    134 H134       34.8339   29.4956    1.3946 H         1 UNK         0.0616 
    135 H135       35.7165   28.0128    1.5003 H         1 UNK         0.0616 
    136 H136       34.8042   26.0580    3.6324 H         1 UNK         0.0634 
    137 H137       34.7502   25.9323    1.8908 H         1 UNK         0.0634 
@<TRIPOS>BOND
     1    1    2 1    
     2    1   72 1    
     3    1   73 1    
     4    1   74 1    
     5    2    3 2    
     6    2    4 am   BACKBONE|DICT|INTERRES
     7    4    5 1    
     8    4   75 1    
     9    5    6 1    
    10    5   35 1    
    11    5   76 1    
    12    6    7 1    
    13    6   77 1    
    14    6   78 1    
    15    7    8 1    
    16    8    9 1    
    17    8   79 1    
    18    8   80 1    
    19    9   10 ar   
    20    9   14 ar   
    21   10   11 ar   
    22   10   81 1    
    23   11   12 ar   
    24   11   71 1    
    25   12   13 ar   
    26   12   82 1    
    27   13   14 ar   
    28   13   15 1    
    29   14   83 1    
    30   15   16 1    
    31   15   84 1    
    32   15   85 1    
    33   16   17 1    
    34   17   18 1    
    35   17   86 1    
    36   17   87 1    
    37   18   19 1    
    38   18   37 1    
    39   18   88 1    
    40   19   20 am   BACKBONE|DICT|INTERRES
    41   19   89 1    
    42   20   21 2    
    43   20   22 1    
    44   22   23 1    
    45   22   24 1    
    46   22   90 1    
    47   23   91 1    
    48   23   92 1    
    49   23   93 1    
    50   24   25 am   BACKBONE|DICT|INTERRES
    51   24   94 1    
    52   25   26 2    
    53   25   27 1    
    54   27   28 1    
    55   27   29 1    
    56   27   95 1    
    57   28   96 1    
    58   28   97 1    
    59   28   98 1    
    60   29   30 am   BACKBONE|DICT|INTERRES
    61   29   99 1    
    62   30   31 2    
    63   30   32 1    
    64   32   33 1    
    65   32   34 1    
    66   32  100 1    
    67   33  101 1    
    68   33  102 1    
    69   33  103 1    
    70   34   35 am   BACKBONE|DICT|INTERRES
    71   34  104 1    
    72   35   36 2    
    73   37   38 2    
    74   37   39 am   BACKBONE|DICT|INTERRES
    75   39   40 1    
    76   39  105 1    
    77   40   41 1    
    78   40   42 1    
    79   40  106 1    
    80   41  107 1    
    81   41  108 1    
    82   41  109 1    
    83   42   43 2    
    84   42   44 am   BACKBONE|DICT|INTERRES
    85   44   45 1    
    86   44  110 1    
    87   45   46 1    
    88   45   47 1    
    89   45  111 1    
    90   46  112 1    
    91   46  113 1    
    92   46  114 1    
    93   47   48 2    
    94   47   49 am   BACKBONE|DICT|INTERRES
    95   49   50 1    
    96   49  115 1    
    97   50   51 1    
    98   50   52 1    
    99   50  116 1    
   100   51  117 1    
   101   51  118 1    
   102   51  119 1    
   103   52   53 2    
   104   52   54 am   BACKBONE|DICT|INTERRES
   105   54   55 1    
   106   54  120 1    
   107   55   56 1    
   108   55   57 1    
   109   55  121 1    
   110   56  122 1    
   111   56  123 1    
   112   56  124 1    
   113   57   58 2    
   114   57   59 am   BACKBONE|DICT|INTERRES
   115   59   60 1    
   116   59  125 1    
   117   60   61 1    
   118   60   62 1    
   119   60  126 1    
   120   61  127 1    
   121   61  128 1    
   122   61  129 1    
   123   62   63 2    
   124   62   64 am   BACKBONE|DICT|INTERRES
   125   64   65 1    
   126   64  130 1    
   127   65   66 1    
   128   65   69 1    
   129   65  131 1    
   130   66   67 am   BACKBONE|DICT|INTERRES
   131   66   68 2    
   132   67  132 1    
   133   67  133 1    
   134   69   70 1    
   135   69  134 1    
   136   69  135 1    
   137   70   71 1    
   138   71  136 1    
   139   71  137 1    
@<TRIPOS>SUBSTRUCTURE
     1 UNK         1 GROUP             0       ****    0 ROOT    
