@<TRIPOS>MOLECULE
3R136
137   139    1
SMALL
USER_CHARGES


@<TRIPOS>ATOM
      1 CA         27.8948   25.8522    3.7200 C.3       0 UNK        -0.1979 
      2 C          27.7672   24.5706    2.9137 C.2       0 UNK         0.4864 
      3 O          26.7078   23.9401    2.9381 O.2       0 UNK        -0.5359 
      4 N          28.8343   24.1755    2.2026 N.am      1 UNK        -0.4318 
      5 CA         28.8786   22.9753    1.3590 C.3       1 UNK         0.0824 
      6 C6         30.2839   22.7159    0.7637 C.3       12 UNK        -0.0944 
      7 S7         31.4307   22.0900    2.0395 S.3       12 UNK        -0.2672 
      8 C8         32.7847   23.3058    2.0117 C.3       12 UNK         0.0333 
      9 C9         32.3276   24.6797    2.4751 C.ar      12 UNK        -0.0807 
     10 C10        31.9797   24.8950    3.8119 C.ar      12 UNK        -0.0894 
     11 C11        31.5535   26.1564    4.2362 C.ar      12 UNK        -0.0804 
     12 C12        31.4634   27.1993    3.3095 C.ar      12 UNK        -0.0824 
     13 C13        31.8130   26.9993    1.9725 C.ar      12 UNK        -0.0762 
     14 C14        32.2604   25.7379    1.5656 C.ar      12 UNK        -0.0782 
     15 C15        31.7098   28.1673    0.9968 C.3       12 UNK         0.0230 
     16 S16        31.1791   27.7069   -0.6882 S.3       12 UNK        -0.2608 
     17 C17        29.5922   26.8611   -0.3769 C.3       12 UNK        -0.0989 
     18 CA         28.3736   27.7652   -0.6780 C.3       5 UNK         0.0716 
     19 N          27.1956   26.9651   -1.0071 N.am      5 UNK        -0.4135 
     20 C          26.1420   27.4188   -1.7012 C.2       4 UNK         0.5031 
     21 O          26.0707   28.5585   -2.1642 O.2       4 UNK        -0.5229 
     22 CA         24.9731   26.4542   -1.9307 C.3       4 UNK         0.0329 
     23 CB         25.1737   25.6843   -3.2465 C.3       4 UNK        -0.2001 
     24 N          24.8352   25.4931   -0.8373 N.am      4 UNK        -0.4303 
     25 C          23.7848   25.4017   -0.0091 C.2       3 UNK         0.5044 
     26 O          22.8412   26.1942   -0.0141 O.2       3 UNK        -0.5152 
     27 CA         23.7798   24.2233    0.9921 C.3       3 UNK         0.0319 
     28 CB         22.3636   23.6622    1.2406 C.3       3 UNK        -0.2001 
     29 N          24.7197   23.1510    0.6352 N.am      3 UNK        -0.4354 
     30 C          24.7248   22.4075   -0.4860 C.2       2 UNK         0.4964 
     31 O          23.8023   22.4011   -1.3018 O.2       2 UNK        -0.5047 
     32 CA         25.9860   21.5662   -0.7831 C.3       2 UNK         0.0288 
     33 CB         26.4107   21.6783   -2.2634 C.3       2 UNK        -0.2113 
     34 N          27.1325   21.8432    0.0953 N.am      2 UNK        -0.4145 
     35 C          27.7940   23.0004    0.2613 C.2       1 UNK         0.5006 
     36 O          27.5446   24.0466   -0.3516 O.2       1 UNK        -0.5103 
     37 C          28.0380   28.7355    0.4737 C.2       5 UNK         0.5055 
     38 O          28.1714   28.3757    1.6434 O.2       5 UNK        -0.5220 
     39 N          27.5721   29.9399    0.1194 N.am      6 UNK        -0.4450 
     40 CA         27.1477   30.9845    1.0576 C.3       6 UNK         0.0367 
     41 CB         26.2775   32.0038    0.3040 C.3       6 UNK        -0.1929 
     42 C          28.3089   31.6978    1.7757 C.2       6 UNK         0.5070 
     43 O          28.0643   32.4028    2.7564 O.2       6 UNK        -0.5237 
     44 N          29.5428   31.5309    1.2801 N.am      7 UNK        -0.4739 
     45 CA         30.7668   32.1211    1.8249 C.3       7 UNK         0.0276 
     46 CB         31.8688   32.0704    0.7502 C.3       7 UNK        -0.1927 
     47 C          31.1993   31.4465    3.1408 C.2       7 UNK         0.5013 
     48 O          32.1862   30.7109    3.1643 O.2       7 UNK        -0.5193 
     49 N          30.4648   31.7258    4.2248 N.am      8 UNK        -0.4253 
     50 CA         30.6906   31.2049    5.5807 C.3       8 UNK         0.0242 
     51 CB         29.5424   31.6707    6.4904 C.3       8 UNK        -0.2000 
     52 C          32.0562   31.5651    6.2046 C.2       8 UNK         0.4948 
     53 O          32.4550   30.9397    7.1862 O.2       8 UNK        -0.5275 
     54 N          32.7587   32.5501    5.6314 N.am      9 UNK        -0.4246 
     55 CA         34.1403   32.8906    5.9722 C.3       9 UNK         0.0261 
     56 CB         34.4082   34.3453    5.5505 C.3       9 UNK        -0.1959 
     57 C          35.1773   31.9478    5.3272 C.2       9 UNK         0.5033 
     58 O          36.3332   31.9683    5.7526 O.2       9 UNK        -0.5390 
     59 N          34.7781   31.1686    4.3103 N.am      10 UNK        -0.4215 
     60 CA         35.6639   30.3495    3.4786 C.3       10 UNK         0.0240 
     61 CB         35.4102   30.7025    2.0000 C.3       10 UNK        -0.1982 
     62 C          35.5053   28.8389    3.7329 C.2       10 UNK         0.4970 
     63 O          35.9343   28.0508    2.8878 O.2       10 UNK        -0.4916 
     64 N          34.9083   28.4470    4.8680 N.am      11 UNK        -0.4279 
     65 CA         34.7457   27.0403    5.2739 C.3       11 UNK         0.1003 
     66 C          36.0981   26.3010    5.4739 C.2       11 UNK         0.5709 
     67 N          36.1612   25.0191    5.1390 N.am      11 UNK        -0.7358 
     68 O          37.0715   26.8651    5.9715 O.2       11 UNK        -0.4999 
     69 C69        33.8650   26.8797    6.5429 C.3       12 UNK        -0.0954 
     70 S70        32.2385   27.6944    6.4376 S.3       12 UNK        -0.2268 
     71 C71        31.1967   26.4005    5.6946 C.3       12 UNK         0.0203 
     72 H72        28.7761   26.4224    3.4325 H         1 UNK         0.0888 
     73 H73        27.9603   25.6250    4.7833 H         1 UNK         0.0888 
     74 H74        27.0242   26.4868    3.5563 H         1 UNK         0.0888 
     75 H75        29.6889   24.7131    2.2426 H         1 UNK         0.3017 
     76 H76        28.6385   22.1400    2.0211 H         1 UNK         0.0873 
     77 H77        30.6793   23.6147    0.2877 H         1 UNK         0.0745 
     78 H78        30.2425   21.9550   -0.0186 H         1 UNK         0.0745 
     79 H79        33.5851   22.9565    2.6654 H         1 UNK         0.0705 
     80 H80        33.2077   23.3485    1.0067 H         1 UNK         0.0705 
     81 H81        32.0425   24.0783    4.5184 H         1 UNK         0.1334 
     82 H82        31.1330   28.1762    3.6371 H         1 UNK         0.1417 
     83 H83        32.5457   25.5754    0.5354 H         1 UNK         0.1562 
     84 H84        32.6825   28.6571    0.9409 H         1 UNK         0.0748 
     85 H85        31.0098   28.9104    1.3793 H         1 UNK         0.0748 
     86 H86        29.5497   26.4464    0.6302 H         1 UNK         0.0940 
     87 H87        29.5804   25.9944   -1.0403 H         1 UNK         0.0940 
     88 H88        28.6180   28.3594   -1.5619 H         1 UNK         0.0703 
     89 H89        27.2008   26.0077   -0.6727 H         1 UNK         0.3081 
     90 H90        24.0673   27.0569   -2.0250 H         1 UNK         0.0719 
     91 H91        26.0830   25.0822   -3.2291 H         1 UNK         0.0809 
     92 H92        24.3351   25.0163   -3.4449 H         1 UNK         0.0809 
     93 H93        25.2506   26.3691   -4.0922 H         1 UNK         0.0809 
     94 H94        25.5768   24.8100   -0.7368 H         1 UNK         0.2990 
     95 H95        24.1409   24.6340    1.9360 H         1 UNK         0.0690 
     96 H96        22.3841   22.8326    1.9472 H         1 UNK         0.0788 
     97 H97        21.8986   23.3086    0.3199 H         1 UNK         0.0788 
     98 H98        21.7083   24.4264    1.6601 H         1 UNK         0.0788 
     99 H99        25.5221   23.0846    1.2518 H         1 UNK         0.2993 
    100 H100       25.7010   20.5296   -0.5968 H         1 UNK         0.0949 
    101 H101       25.6137   21.3450   -2.9293 H         1 UNK         0.0767 
    102 H102       26.6550   22.7045   -2.5390 H         1 UNK         0.0767 
    103 H103       27.2830   21.0592   -2.4731 H         1 UNK         0.0767 
    104 H104       27.4134   21.0617    0.6725 H         1 UNK         0.3013 
    105 H105       27.4266   30.1259   -0.8645 H         1 UNK         0.3121 
    106 H106       26.5326   30.5179    1.8302 H         1 UNK         0.0774 
    107 H107       25.4081   31.5262   -0.1485 H         1 UNK         0.0815 
    108 H108       26.8363   32.5055   -0.4869 H         1 UNK         0.0815 
    109 H109       25.9052   32.7755    0.9795 H         1 UNK         0.0815 
    110 H110       29.6489   30.9273    0.4785 H         1 UNK         0.2987 
    111 H111       30.5743   33.1733    2.0470 H         1 UNK         0.0949 
    112 H112       32.0899   31.0498    0.4382 H         1 UNK         0.0806 
    113 H113       31.5831   32.6358   -0.1369 H         1 UNK         0.0806 
    114 H114       32.7977   32.5047    1.1225 H         1 UNK         0.0806 
    115 H115       29.6243   32.2765    4.0797 H         1 UNK         0.3010 
    116 H116       30.6523   30.1160    5.5150 H         1 UNK         0.0829 
    117 H117       28.5760   31.3348    6.1136 H         1 UNK         0.0813 
    118 H118       29.6529   31.2669    7.4979 H         1 UNK         0.0813 
    119 H119       29.5117   32.7576    6.5755 H         1 UNK         0.0813 
    120 H120       32.3476   33.0349    4.8474 H         1 UNK         0.3038 
    121 H121       34.2648   32.8226    7.0553 H         1 UNK         0.0769 
    122 H122       34.3067   34.4798    4.4728 H         1 UNK         0.0811 
    123 H123       35.4196   34.6508    5.8223 H         1 UNK         0.0811 
    124 H124       33.7215   35.0345    6.0424 H         1 UNK         0.0811 
    125 H125       33.7961   31.1499    4.0408 H         1 UNK         0.3204 
    126 H126       36.7070   30.5868    3.6965 H         1 UNK         0.0748 
    127 H127       35.5111   31.7735    1.8240 H         1 UNK         0.0771 
    128 H128       36.1249   30.2014    1.3460 H         1 UNK         0.0771 
    129 H129       34.4119   30.4027    1.6807 H         1 UNK         0.0771 
    130 H130       34.5778   29.1435    5.5183 H         1 UNK         0.2980 
    131 H131       34.2374   26.5478    4.4450 H         1 UNK         0.0545 
    132 H132       37.0253   24.5191    5.2776 H         1 UNK         0.3459 
    133 H133       35.3661   24.5453    4.7407 H         1 UNK         0.3459 
    134 H134       33.7061   25.8231    6.7665 H         1 UNK         0.0616 
    135 H135       34.3792   27.2972    7.4105 H         1 UNK         0.0616 
    136 H136       30.1545   26.7157    5.7555 H         1 UNK         0.0634 
    137 H137       31.2793   25.4857    6.2832 H         1 UNK         0.0634 
@<TRIPOS>BOND
     1    1    2 1    
     2    1   72 1    
     3    1   73 1    
     4    1   74 1    
     5    2    3 2    
     6    2    4 am   BACKBONE|DICT|INTERRES
     7    4    5 1    
     8    4   75 1    
     9    5    6 1    
    10    5   35 1    
    11    5   76 1    
    12    6    7 1    
    13    6   77 1    
    14    6   78 1    
    15    7    8 1    
    16    8    9 1    
    17    8   79 1    
    18    8   80 1    
    19    9   10 ar   
    20    9   14 ar   
    21   10   11 ar   
    22   10   81 1    
    23   11   12 ar   
    24   11   71 1    
    25   12   13 ar   
    26   12   82 1    
    27   13   14 ar   
    28   13   15 1    
    29   14   83 1    
    30   15   16 1    
    31   15   84 1    
    32   15   85 1    
    33   16   17 1    
    34   17   18 1    
    35   17   86 1    
    36   17   87 1    
    37   18   19 1    
    38   18   37 1    
    39   18   88 1    
    40   19   20 am   BACKBONE|DICT|INTERRES
    41   19   89 1    
    42   20   21 2    
    43   20   22 1    
    44   22   23 1    
    45   22   24 1    
    46   22   90 1    
    47   23   91 1    
    48   23   92 1    
    49   23   93 1    
    50   24   25 am   BACKBONE|DICT|INTERRES
    51   24   94 1    
    52   25   26 2    
    53   25   27 1    
    54   27   28 1    
    55   27   29 1    
    56   27   95 1    
    57   28   96 1    
    58   28   97 1    
    59   28   98 1    
    60   29   30 am   BACKBONE|DICT|INTERRES
    61   29   99 1    
    62   30   31 2    
    63   30   32 1    
    64   32   33 1    
    65   32   34 1    
    66   32  100 1    
    67   33  101 1    
    68   33  102 1    
    69   33  103 1    
    70   34   35 am   BACKBONE|DICT|INTERRES
    71   34  104 1    
    72   35   36 2    
    73   37   38 2    
    74   37   39 am   BACKBONE|DICT|INTERRES
    75   39   40 1    
    76   39  105 1    
    77   40   41 1    
    78   40   42 1    
    79   40  106 1    
    80   41  107 1    
    81   41  108 1    
    82   41  109 1    
    83   42   43 2    
    84   42   44 am   BACKBONE|DICT|INTERRES
    85   44   45 1    
    86   44  110 1    
    87   45   46 1    
    88   45   47 1    
    89   45  111 1    
    90   46  112 1    
    91   46  113 1    
    92   46  114 1    
    93   47   48 2    
    94   47   49 am   BACKBONE|DICT|INTERRES
    95   49   50 1    
    96   49  115 1    
    97   50   51 1    
    98   50   52 1    
    99   50  116 1    
   100   51  117 1    
   101   51  118 1    
   102   51  119 1    
   103   52   53 2    
   104   52   54 am   BACKBONE|DICT|INTERRES
   105   54   55 1    
   106   54  120 1    
   107   55   56 1    
   108   55   57 1    
   109   55  121 1    
   110   56  122 1    
   111   56  123 1    
   112   56  124 1    
   113   57   58 2    
   114   57   59 am   BACKBONE|DICT|INTERRES
   115   59   60 1    
   116   59  125 1    
   117   60   61 1    
   118   60   62 1    
   119   60  126 1    
   120   61  127 1    
   121   61  128 1    
   122   61  129 1    
   123   62   63 2    
   124   62   64 am   BACKBONE|DICT|INTERRES
   125   64   65 1    
   126   64  130 1    
   127   65   66 1    
   128   65   69 1    
   129   65  131 1    
   130   66   67 am   BACKBONE|DICT|INTERRES
   131   66   68 2    
   132   67  132 1    
   133   67  133 1    
   134   69   70 1    
   135   69  134 1    
   136   69  135 1    
   137   70   71 1    
   138   71  136 1    
   139   71  137 1    
@<TRIPOS>SUBSTRUCTURE
     1 UNK         1 GROUP             0       ****    0 ROOT    
