@<TRIPOS>MOLECULE
3R136
137   139    1
SMALL
USER_CHARGES


@<TRIPOS>ATOM
      1 CA         26.8162   17.3188    3.1621 C.3       0 UNK        -0.1979 
      2 C          27.4875   18.0207    1.9906 C.2       0 UNK         0.4864 
      3 O          27.5876   17.4423    0.9069 O.2       0 UNK        -0.5359 
      4 N          27.9554   19.2573    2.2022 N.am      1 UNK        -0.4318 
      5 CA         28.5875   20.1018    1.1837 C.3       1 UNK         0.0824 
      6 C6         29.2873   21.3329    1.8094 C.3       12 UNK        -0.0944 
      7 S7         30.6163   20.8742    2.9710 S.3       12 UNK        -0.2672 
      8 C8         31.9763   21.9642    2.4240 C.3       12 UNK         0.0333 
      9 C9         31.6336   23.4531    2.4681 C.ar      12 UNK        -0.0807 
     10 C10        32.0610   24.2929    1.4337 C.ar      12 UNK        -0.0894 
     11 C11        31.7737   25.6620    1.4536 C.ar      12 UNK        -0.0804 
     12 C12        31.0290   26.1847    2.5171 C.ar      12 UNK        -0.0824 
     13 C13        30.6056   25.3622    3.5637 C.ar      12 UNK        -0.0762 
     14 C14        30.9169   24.0009    3.5382 C.ar      12 UNK        -0.0782 
     15 C15        29.8286   25.9473    4.7311 C.3       12 UNK         0.0230 
     16 S16        28.0428   25.9797    4.3788 S.3       12 UNK        -0.2608 
     17 C17        27.6546   27.7525    4.5823 C.3       12 UNK        -0.0989 
     18 CA         27.7570   28.5425    3.2476 C.3       5 UNK         0.0716 
     19 N          26.9136   28.0025    2.1684 N.am      5 UNK        -0.4135 
     20 C          25.5741   27.9107    2.1570 C.2       4 UNK         0.5031 
     21 O          24.8517   28.2779    3.0840 O.2       4 UNK        -0.5229 
     22 CA         24.9176   27.3598    0.8767 C.3       4 UNK         0.0329 
     23 CB         24.2275   28.4967    0.1027 C.3       4 UNK        -0.2001 
     24 N          25.8651   26.6850   -0.0176 N.am      4 UNK        -0.4303 
     25 C          26.2439   25.4069    0.1060 C.2       3 UNK         0.5044 
     26 O          25.8194   24.6376    0.9711 O.2       3 UNK        -0.5152 
     27 CA         27.2975   24.9184   -0.8925 C.3       3 UNK         0.0319 
     28 CB         28.7176   25.1831   -0.3582 C.3       3 UNK        -0.2001 
     29 N          27.1150   23.4880   -1.1140 N.am      3 UNK        -0.4354 
     30 C          27.4485   22.8232   -2.2258 C.2       2 UNK         0.4964 
     31 O          27.9520   23.3597   -3.2147 O.2       2 UNK        -0.5047 
     32 CA         27.2186   21.2994   -2.2064 C.3       2 UNK         0.0288 
     33 CB         27.6079   20.6181   -3.5326 C.3       2 UNK        -0.2113 
     34 N          27.9847   20.6903   -1.1170 N.am      2 UNK        -0.4145 
     35 C          27.5540   20.5780    0.1456 C.2       1 UNK         0.5006 
     36 O          26.4211   20.9051    0.5107 O.2       1 UNK        -0.5103 
     37 C          27.5895   30.0697    3.4443 C.2       5 UNK         0.5055 
     38 O          27.9652   30.5957    4.4925 O.2       5 UNK        -0.5220 
     39 N          27.0671   30.7634    2.4219 N.am      6 UNK        -0.4450 
     40 CA         26.8804   32.2181    2.3872 C.3       6 UNK         0.0367 
     41 CB         25.6700   32.5332    1.4908 C.3       6 UNK        -0.1929 
     42 C          28.1313   32.9766    1.8989 C.2       6 UNK         0.5070 
     43 O          28.1236   34.2085    1.8907 O.2       6 UNK        -0.5237 
     44 N          29.1661   32.2392    1.4737 N.am      7 UNK        -0.4739 
     45 CA         30.4557   32.7524    1.0092 C.3       7 UNK         0.0276 
     46 CB         31.2464   31.5807    0.4050 C.3       7 UNK        -0.1927 
     47 C          31.2750   33.4182    2.1291 C.2       7 UNK         0.5013 
     48 O          30.9990   33.2064    3.3143 O.2       7 UNK        -0.5193 
     49 N          32.3055   34.1749    1.7236 N.am      8 UNK        -0.4253 
     50 CA         33.2766   34.8352    2.6012 C.3       8 UNK         0.0242 
     51 CB         34.3382   35.5469    1.7468 C.3       8 UNK        -0.2000 
     52 C          33.9364   33.8418    3.5722 C.2       8 UNK         0.4948 
     53 O          34.4984   32.8378    3.1261 O.2       8 UNK        -0.5275 
     54 N          33.7867   34.1148    4.8767 N.am      9 UNK        -0.4246 
     55 CA         34.2161   33.2863    6.0118 C.3       9 UNK         0.0261 
     56 CB         35.7568   33.2790    6.1152 C.3       9 UNK        -0.1959 
     57 C          33.6258   31.8583    6.0112 C.2       9 UNK         0.5033 
     58 O          34.2381   30.9580    6.5886 O.2       9 UNK        -0.5390 
     59 N          32.4778   31.6588    5.3393 N.am      10 UNK        -0.4215 
     60 CA         31.8128   30.3720    5.0922 C.3       10 UNK         0.0240 
     61 CB         31.1774   29.8341    6.3919 C.3       10 UNK        -0.1982 
     62 C          32.7362   29.3474    4.3978 C.2       10 UNK         0.4970 
     63 O          32.7003   28.1650    4.7381 O.2       10 UNK        -0.4916 
     64 N          33.5660   29.8387    3.4652 N.am      11 UNK        -0.4279 
     65 CA         34.6366   29.1078    2.7634 C.3       11 UNK         0.1003 
     66 C          35.8803   28.7795    3.6459 C.2       11 UNK         0.5709 
     67 N          35.9819   29.2528    4.8831 N.am      11 UNK        -0.7358 
     68 O          36.7999   28.1059    3.1863 O.2       11 UNK        -0.4999 
     69 C69        34.1484   27.8641    1.9600 C.3       12 UNK        -0.0954 
     70 S70        32.7783   28.2283    0.8124 S.3       12 UNK        -0.2268 
     71 C71        32.2651   26.5491    0.3095 C.3       12 UNK         0.0203 
     72 H72        25.7842   17.0746    2.9115 H         1 UNK         0.0888 
     73 H73        27.3399   16.3917    3.3943 H         1 UNK         0.0888 
     74 H74        26.8100   17.9382    4.0590 H         1 UNK         0.0888 
     75 H75        27.8398   19.6860    3.1091 H         1 UNK         0.3017 
     76 H76        29.3395   19.4982    0.6702 H         1 UNK         0.0873 
     77 H77        28.5702   21.9597    2.3441 H         1 UNK         0.0745 
     78 H78        29.7088   21.9643    1.0242 H         1 UNK         0.0745 
     79 H79        32.2683   21.6679    1.4152 H         1 UNK         0.0705 
     80 H80        32.8437   21.7877    3.0611 H         1 UNK         0.0705 
     81 H81        32.6261   23.8793    0.6094 H         1 UNK         0.1334 
     82 H82        30.7965   27.2389    2.5449 H         1 UNK         0.1417 
     83 H83        30.5928   23.3658    4.3512 H         1 UNK         0.1562 
     84 H84        30.2030   26.9479    4.9457 H         1 UNK         0.0748 
     85 H85        30.0016   25.3614    5.6350 H         1 UNK         0.0748 
     86 H86        28.3141   28.1733    5.3430 H         1 UNK         0.0940 
     87 H87        26.6484   27.8343    4.9962 H         1 UNK         0.0940 
     88 H88        28.7816   28.4293    2.8926 H         1 UNK         0.0703 
     89 H89        27.4094   27.6544    1.3619 H         1 UNK         0.3081 
     90 H90        24.1501   26.6470    1.1869 H         1 UNK         0.0719 
     91 H91        24.9398   29.2478   -0.2407 H         1 UNK         0.0809 
     92 H92        23.6951   28.1157   -0.7690 H         1 UNK         0.0809 
     93 H93        23.4933   29.0070    0.7283 H         1 UNK         0.0809 
     94 H94        26.2484   27.2366   -0.7728 H         1 UNK         0.2990 
     95 H95        27.1560   25.4510   -1.8356 H         1 UNK         0.0690 
     96 H96        28.8905   24.6775    0.5935 H         1 UNK         0.0788 
     97 H97        28.8877   26.2479   -0.1969 H         1 UNK         0.0788 
     98 H98        29.4782   24.8388   -1.0592 H         1 UNK         0.0788 
     99 H99        26.6684   22.9913   -0.3491 H         1 UNK         0.2993 
    100 H100       26.1507   21.1319   -2.0479 H         1 UNK         0.0949 
    101 H101       27.4032   19.5476   -3.5021 H         1 UNK         0.0767 
    102 H102       27.0380   21.0315   -4.3659 H         1 UNK         0.0767 
    103 H103       28.6661   20.7506   -3.7622 H         1 UNK         0.0767 
    104 H104       28.9392   20.4381   -1.3315 H         1 UNK         0.3013 
    105 H105       26.7860   30.2561    1.5962 H         1 UNK         0.3121 
    106 H106       26.6593   32.5749    3.3956 H         1 UNK         0.0774 
    107 H107       25.4599   33.6036    1.4789 H         1 UNK         0.0815 
    108 H108       25.8386   32.2236    0.4586 H         1 UNK         0.0815 
    109 H109       24.7697   32.0335    1.8494 H         1 UNK         0.0815 
    110 H110       29.0812   31.2373    1.5396 H         1 UNK         0.2987 
    111 H111       30.2649   33.4970    0.2331 H         1 UNK         0.0949 
    112 H112       32.1999   31.9115   -0.0088 H         1 UNK         0.0806 
    113 H113       31.4666   30.8243    1.1586 H         1 UNK         0.0806 
    114 H114       30.6964   31.0997   -0.4041 H         1 UNK         0.0806 
    115 H115       32.4734   34.2640    0.7320 H         1 UNK         0.3010 
    116 H116       32.7352   35.5908    3.1743 H         1 UNK         0.0829 
    117 H117       33.8891   36.2967    1.0952 H         1 UNK         0.0813 
    118 H118       35.0652   36.0611    2.3771 H         1 UNK         0.0813 
    119 H119       34.8903   34.8439    1.1214 H         1 UNK         0.0813 
    120 H120       33.2782   34.9523    5.1271 H         1 UNK         0.3038 
    121 H121       33.8261   33.7699    6.9086 H         1 UNK         0.0769 
    122 H122       36.0877   32.7929    7.0338 H         1 UNK         0.0811 
    123 H123       36.1597   34.2917    6.1252 H         1 UNK         0.0811 
    124 H124       36.2144   32.7437    5.2822 H         1 UNK         0.0811 
    125 H125       32.0592   32.4479    4.8531 H         1 UNK         0.3204 
    126 H126       31.0030   30.5748    4.3894 H         1 UNK         0.0748 
    127 H127       30.5809   28.9431    6.1984 H         1 UNK         0.0771 
    128 H128       31.9327   29.5666    7.1315 H         1 UNK         0.0771 
    129 H129       30.5127   30.5723    6.8405 H         1 UNK         0.0771 
    130 H130       33.5712   30.8392    3.3062 H         1 UNK         0.2980 
    131 H131       35.0127   29.8238    2.0321 H         1 UNK         0.0545 
    132 H132       36.8044   29.0323    5.4206 H         1 UNK         0.3459 
    133 H133       35.2439   29.8061    5.3049 H         1 UNK         0.3459 
    134 H134       34.9648   27.4520    1.3646 H         1 UNK         0.0616 
    135 H135       33.8448   27.0696    2.6424 H         1 UNK         0.0616 
    136 H136       33.1065   26.0775   -0.2005 H         1 UNK         0.0634 
    137 H137       31.4672   26.6382   -0.4281 H         1 UNK         0.0634 
@<TRIPOS>BOND
     1    1    2 1    
     2    1   72 1    
     3    1   73 1    
     4    1   74 1    
     5    2    3 2    
     6    2    4 am   BACKBONE|DICT|INTERRES
     7    4    5 1    
     8    4   75 1    
     9    5    6 1    
    10    5   35 1    
    11    5   76 1    
    12    6    7 1    
    13    6   77 1    
    14    6   78 1    
    15    7    8 1    
    16    8    9 1    
    17    8   79 1    
    18    8   80 1    
    19    9   10 ar   
    20    9   14 ar   
    21   10   11 ar   
    22   10   81 1    
    23   11   12 ar   
    24   11   71 1    
    25   12   13 ar   
    26   12   82 1    
    27   13   14 ar   
    28   13   15 1    
    29   14   83 1    
    30   15   16 1    
    31   15   84 1    
    32   15   85 1    
    33   16   17 1    
    34   17   18 1    
    35   17   86 1    
    36   17   87 1    
    37   18   19 1    
    38   18   37 1    
    39   18   88 1    
    40   19   20 am   BACKBONE|DICT|INTERRES
    41   19   89 1    
    42   20   21 2    
    43   20   22 1    
    44   22   23 1    
    45   22   24 1    
    46   22   90 1    
    47   23   91 1    
    48   23   92 1    
    49   23   93 1    
    50   24   25 am   BACKBONE|DICT|INTERRES
    51   24   94 1    
    52   25   26 2    
    53   25   27 1    
    54   27   28 1    
    55   27   29 1    
    56   27   95 1    
    57   28   96 1    
    58   28   97 1    
    59   28   98 1    
    60   29   30 am   BACKBONE|DICT|INTERRES
    61   29   99 1    
    62   30   31 2    
    63   30   32 1    
    64   32   33 1    
    65   32   34 1    
    66   32  100 1    
    67   33  101 1    
    68   33  102 1    
    69   33  103 1    
    70   34   35 am   BACKBONE|DICT|INTERRES
    71   34  104 1    
    72   35   36 2    
    73   37   38 2    
    74   37   39 am   BACKBONE|DICT|INTERRES
    75   39   40 1    
    76   39  105 1    
    77   40   41 1    
    78   40   42 1    
    79   40  106 1    
    80   41  107 1    
    81   41  108 1    
    82   41  109 1    
    83   42   43 2    
    84   42   44 am   BACKBONE|DICT|INTERRES
    85   44   45 1    
    86   44  110 1    
    87   45   46 1    
    88   45   47 1    
    89   45  111 1    
    90   46  112 1    
    91   46  113 1    
    92   46  114 1    
    93   47   48 2    
    94   47   49 am   BACKBONE|DICT|INTERRES
    95   49   50 1    
    96   49  115 1    
    97   50   51 1    
    98   50   52 1    
    99   50  116 1    
   100   51  117 1    
   101   51  118 1    
   102   51  119 1    
   103   52   53 2    
   104   52   54 am   BACKBONE|DICT|INTERRES
   105   54   55 1    
   106   54  120 1    
   107   55   56 1    
   108   55   57 1    
   109   55  121 1    
   110   56  122 1    
   111   56  123 1    
   112   56  124 1    
   113   57   58 2    
   114   57   59 am   BACKBONE|DICT|INTERRES
   115   59   60 1    
   116   59  125 1    
   117   60   61 1    
   118   60   62 1    
   119   60  126 1    
   120   61  127 1    
   121   61  128 1    
   122   61  129 1    
   123   62   63 2    
   124   62   64 am   BACKBONE|DICT|INTERRES
   125   64   65 1    
   126   64  130 1    
   127   65   66 1    
   128   65   69 1    
   129   65  131 1    
   130   66   67 am   BACKBONE|DICT|INTERRES
   131   66   68 2    
   132   67  132 1    
   133   67  133 1    
   134   69   70 1    
   135   69  134 1    
   136   69  135 1    
   137   70   71 1    
   138   71  136 1    
   139   71  137 1    
@<TRIPOS>SUBSTRUCTURE
     1 UNK         1 GROUP             0       ****    0 ROOT    
