@<TRIPOS>MOLECULE
3R136
137   139    1
SMALL
USER_CHARGES


@<TRIPOS>ATOM
      1 CA         33.1075   27.8238   -1.5603 C.3       0 UNK        -0.1979 
      2 C          32.4476   26.4612   -1.4163 C.2       0 UNK         0.4864 
      3 O          32.5270   25.6543   -2.3441 O.2       0 UNK        -0.5359 
      4 N          31.8075   26.2103   -0.2624 N.am      1 UNK        -0.4318 
      5 CA         31.0287   25.0038    0.0662 C.3       1 UNK         0.0824 
      6 C6         31.8976   23.7084   -0.0317 C.3       12 UNK        -0.0944 
      7 S7         31.2376   22.2163    0.7950 S.3       12 UNK        -0.2672 
      8 C8         32.1839   22.1443    2.3585 C.3       12 UNK         0.0333 
      9 C9         31.6846   23.0834    3.4565 C.ar      12 UNK        -0.0807 
     10 C10        32.5623   23.4788    4.4691 C.ar      12 UNK        -0.0894 
     11 C11        32.1339   24.3185    5.5028 C.ar      12 UNK        -0.0804 
     12 C12        30.8167   24.7920    5.5053 C.ar      12 UNK        -0.0824 
     13 C13        29.9221   24.4050    4.5009 C.ar      12 UNK        -0.0762 
     14 C14        30.3584   23.5235    3.5065 C.ar      12 UNK        -0.0782 
     15 C15        28.4837   24.9209    4.4971 C.3       12 UNK         0.0230 
     16 S16        27.9168   25.3427    2.8147 S.3       12 UNK        -0.2608 
     17 C17        26.2743   26.0835    3.0966 C.3       12 UNK        -0.0989 
     18 CA         26.2947   27.5862    2.7309 C.3       5 UNK         0.0716 
     19 N          26.7015   27.7881    1.3336 N.am      5 UNK        -0.4135 
     20 C          27.0767   28.9627    0.8110 C.2       4 UNK         0.5031 
     21 O          27.1140   30.0027    1.4674 O.2       4 UNK        -0.5229 
     22 CA         27.5385   28.9980   -0.6570 C.3       4 UNK         0.0329 
     23 CB         29.0720   29.0894   -0.7286 C.3       4 UNK        -0.2001 
     24 N          27.0808   27.8477   -1.4396 N.am      4 UNK        -0.4303 
     25 C          25.8188   27.6936   -1.8695 C.2       3 UNK         0.5044 
     26 O          24.9390   28.5396   -1.7046 O.2       3 UNK        -0.5152 
     27 CA         25.4564   26.3888   -2.6058 C.3       3 UNK         0.0319 
     28 CB         25.3311   26.6426   -4.1171 C.3       3 UNK        -0.2001 
     29 N          26.3865   25.2780   -2.3880 N.am      3 UNK        -0.4354 
     30 C          26.6446   24.6897   -1.2119 C.2       2 UNK         0.4964 
     31 O          26.1300   25.0382   -0.1494 O.2       2 UNK        -0.5047 
     32 CA         27.6665   23.5347   -1.2164 C.3       2 UNK         0.0288 
     33 CB         27.9752   22.9761   -2.6246 C.3       2 UNK        -0.2113 
     34 N          28.9222   23.8788   -0.5388 N.am      2 UNK        -0.4145 
     35 C          29.7028   24.9503   -0.7427 C.2       1 UNK         0.5006 
     36 O          29.3940   25.8722   -1.5054 O.2       1 UNK        -0.5103 
     37 C          24.9389   28.2801    3.0116 C.2       5 UNK         0.5055 
     38 O          24.1049   28.3426    2.1077 O.2       5 UNK        -0.5220 
     39 N          24.6745   28.7992    4.2212 N.am      6 UNK        -0.4450 
     40 CA         25.4613   28.7092    5.4573 C.3       6 UNK         0.0367 
     41 CB         24.5072   28.8902    6.6504 C.3       6 UNK        -0.1929 
     42 C          26.6374   29.6982    5.5677 C.2       6 UNK         0.5070 
     43 O          27.4272   29.5588    6.5012 O.2       6 UNK        -0.5237 
     44 N          26.7615   30.6597    4.6387 N.am      7 UNK        -0.4739 
     45 CA         27.8979   31.5947    4.5839 C.3       7 UNK         0.0276 
     46 CB         27.6029   32.7264    3.5865 C.3       7 UNK        -0.1927 
     47 C          29.2279   30.8935    4.2468 C.2       7 UNK         0.5013 
     48 O          30.2781   31.3010    4.7428 O.2       7 UNK        -0.5193 
     49 N          29.1423   29.8386    3.4252 N.am      8 UNK        -0.4253 
     50 CA         30.1429   28.8207    3.0792 C.3       8 UNK         0.0242 
     51 CB         30.6619   28.1060    4.3375 C.3       8 UNK        -0.2000 
     52 C          31.3166   29.3091    2.2226 C.2       8 UNK         0.4948 
     53 O          31.8316   28.5179    1.4307 O.2       8 UNK        -0.5275 
     54 N          31.7323   30.5694    2.4000 N.am      9 UNK        -0.4246 
     55 CA         32.8353   31.2857    1.7467 C.3       9 UNK         0.0261 
     56 CB         32.6162   31.4057    0.2259 C.3       9 UNK        -0.1959 
     57 C          34.2242   30.7167    2.0849 C.2       9 UNK         0.5033 
     58 O          35.0681   31.4529    2.5963 O.2       9 UNK        -0.5390 
     59 N          34.4216   29.4139    1.8486 N.am      10 UNK        -0.4215 
     60 CA         35.6271   28.6538    2.1939 C.3       10 UNK         0.0240 
     61 CB         35.5377   27.2473    1.5774 C.3       10 UNK        -0.1982 
     62 C          35.8599   28.5642    3.7124 C.2       10 UNK         0.4970 
     63 O          37.0096   28.6045    4.1520 O.2       10 UNK        -0.4916 
     64 N          34.7615   28.4727    4.4710 N.am      11 UNK        -0.4279 
     65 CA         34.7299   28.5021    5.9408 C.3       11 UNK         0.1003 
     66 C          34.3600   29.9045    6.5102 C.2       11 UNK         0.5709 
     67 N          34.3413   30.9679    5.7136 N.am      11 UNK        -0.7358 
     68 O          34.1029   30.0402    7.7042 O.2       11 UNK        -0.4999 
     69 C69        33.8252   27.3740    6.5069 C.3       12 UNK        -0.0954 
     70 S70        34.4632   25.7196    6.0914 S.3       12 UNK        -0.2268 
     71 C71        33.0892   24.6601    6.6383 C.3       12 UNK         0.0203 
     72 H72        33.4863   28.1831   -0.6042 H         1 UNK         0.0888 
     73 H73        33.9494   27.7716   -2.2540 H         1 UNK         0.0888 
     74 H74        32.3879   28.5485   -1.9466 H         1 UNK         0.0888 
     75 H75        31.7641   26.9575    0.4281 H         1 UNK         0.3017 
     76 H76        30.7374   25.1336    1.1094 H         1 UNK         0.0873 
     77 H77        32.0667   23.4455   -1.0769 H         1 UNK         0.0745 
     78 H78        32.8886   23.9060    0.3798 H         1 UNK         0.0745 
     79 H79        32.1287   21.1240    2.7400 H         1 UNK         0.0705 
     80 H80        33.2372   22.3346    2.1464 H         1 UNK         0.0705 
     81 H81        33.5824   23.1189    4.4659 H         1 UNK         0.1334 
     82 H82        30.4846   25.4493    6.2974 H         1 UNK         0.1417 
     83 H83        29.6537   23.1914    2.7589 H         1 UNK         0.1562 
     84 H84        28.3901   25.8017    5.1336 H         1 UNK         0.0748 
     85 H85        27.8298   24.1553    4.9164 H         1 UNK         0.0748 
     86 H86        25.9740   25.9218    4.1322 H         1 UNK         0.0940 
     87 H87        25.5449   25.5491    2.4845 H         1 UNK         0.0940 
     88 H88        27.0577   28.0571    3.3471 H         1 UNK         0.0703 
     89 H89        26.6587   26.9687    0.7391 H         1 UNK         0.3081 
     90 H90        27.1274   29.9050   -1.1053 H         1 UNK         0.0719 
     91 H91        29.5496   28.2348   -0.2493 H         1 UNK         0.0809 
     92 H92        29.4223   29.1324   -1.7598 H         1 UNK         0.0809 
     93 H93        29.4341   29.9873   -0.2260 H         1 UNK         0.0809 
     94 H94        27.7579   27.1091   -1.6093 H         1 UNK         0.2990 
     95 H95        24.4805   26.0735   -2.2307 H         1 UNK         0.0690 
     96 H96        24.9777   25.7549   -4.6420 H         1 UNK         0.0788 
     97 H97        26.2850   26.9373   -4.5564 H         1 UNK         0.0788 
     98 H98        24.6174   27.4420   -4.3221 H         1 UNK         0.0788 
     99 H99        26.8868   24.9438   -3.1990 H         1 UNK         0.2993 
    100 H100       27.2104   22.7319   -0.6349 H         1 UNK         0.0949 
    101 H101       28.5010   23.6989   -3.2500 H         1 UNK         0.0767 
    102 H102       28.6036   22.0875   -2.5587 H         1 UNK         0.0767 
    103 H103       27.0628   22.6798   -3.1444 H         1 UNK         0.0767 
    104 H104       29.2619   23.1879    0.1184 H         1 UNK         0.3013 
    105 H105       23.7863   29.2685    4.3244 H         1 UNK         0.3121 
    106 H106       25.8867   27.7083    5.5338 H         1 UNK         0.0774 
    107 H107       24.0421   29.8769    6.6502 H         1 UNK         0.0815 
    108 H108       25.0364   28.7813    7.5983 H         1 UNK         0.0815 
    109 H109       23.7128   28.1435    6.6418 H         1 UNK         0.0815 
    110 H110       26.0800   30.7180    3.8944 H         1 UNK         0.2987 
    111 H111       28.0123   32.0407    5.5746 H         1 UNK         0.0949 
    112 H112       27.4689   32.3536    2.5711 H         1 UNK         0.0806 
    113 H113       26.7024   33.2744    3.8640 H         1 UNK         0.0806 
    114 H114       28.4230   33.4454    3.5618 H         1 UNK         0.0806 
    115 H115       28.2547   29.7442    2.9385 H         1 UNK         0.3010 
    116 H116       29.6140   28.0794    2.4781 H         1 UNK         0.0829 
    117 H117       31.3136   27.2727    4.0709 H         1 UNK         0.0813 
    118 H118       31.2315   28.7797    4.9780 H         1 UNK         0.0813 
    119 H119       29.8407   27.7036    4.9291 H         1 UNK         0.0813 
    120 H120       31.2735   31.0767    3.1538 H         1 UNK         0.3038 
    121 H121       32.8076   32.2971    2.1558 H         1 UNK         0.0769 
    122 H122       31.6780   31.9139    0.0033 H         1 UNK         0.0811 
    123 H123       32.5907   30.4352   -0.2672 H         1 UNK         0.0811 
    124 H124       33.4161   31.9843   -0.2381 H         1 UNK         0.0811 
    125 H125       33.6201   28.8939    1.4971 H         1 UNK         0.3204 
    126 H126       36.4856   29.1690    1.7578 H         1 UNK         0.0748 
    127 H127       35.5025   27.2924    0.4891 H         1 UNK         0.0771 
    128 H128       36.4092   26.6477    1.8445 H         1 UNK         0.0771 
    129 H129       34.6534   26.7082    1.9213 H         1 UNK         0.0771 
    130 H130       33.8638   28.4502    4.0136 H         1 UNK         0.2980 
    131 H131       35.7368   28.3165    6.3188 H         1 UNK         0.0545 
    132 H132       34.6128   30.9019    4.7431 H         1 UNK         0.3459 
    133 H133       34.1015   31.8642    6.1064 H         1 UNK         0.3459 
    134 H134       32.8049   27.4672    6.1365 H         1 UNK         0.0616 
    135 H135       33.7658   27.4323    7.5952 H         1 UNK         0.0616 
    136 H136       33.5063   23.7332    7.0343 H         1 UNK         0.0634 
    137 H137       32.5625   25.1326    7.4689 H         1 UNK         0.0634 
@<TRIPOS>BOND
     1    1    2 1    
     2    1   72 1    
     3    1   73 1    
     4    1   74 1    
     5    2    3 2    
     6    2    4 am   BACKBONE|DICT|INTERRES
     7    4    5 1    
     8    4   75 1    
     9    5    6 1    
    10    5   35 1    
    11    5   76 1    
    12    6    7 1    
    13    6   77 1    
    14    6   78 1    
    15    7    8 1    
    16    8    9 1    
    17    8   79 1    
    18    8   80 1    
    19    9   10 ar   
    20    9   14 ar   
    21   10   11 ar   
    22   10   81 1    
    23   11   12 ar   
    24   11   71 1    
    25   12   13 ar   
    26   12   82 1    
    27   13   14 ar   
    28   13   15 1    
    29   14   83 1    
    30   15   16 1    
    31   15   84 1    
    32   15   85 1    
    33   16   17 1    
    34   17   18 1    
    35   17   86 1    
    36   17   87 1    
    37   18   19 1    
    38   18   37 1    
    39   18   88 1    
    40   19   20 am   BACKBONE|DICT|INTERRES
    41   19   89 1    
    42   20   21 2    
    43   20   22 1    
    44   22   23 1    
    45   22   24 1    
    46   22   90 1    
    47   23   91 1    
    48   23   92 1    
    49   23   93 1    
    50   24   25 am   BACKBONE|DICT|INTERRES
    51   24   94 1    
    52   25   26 2    
    53   25   27 1    
    54   27   28 1    
    55   27   29 1    
    56   27   95 1    
    57   28   96 1    
    58   28   97 1    
    59   28   98 1    
    60   29   30 am   BACKBONE|DICT|INTERRES
    61   29   99 1    
    62   30   31 2    
    63   30   32 1    
    64   32   33 1    
    65   32   34 1    
    66   32  100 1    
    67   33  101 1    
    68   33  102 1    
    69   33  103 1    
    70   34   35 am   BACKBONE|DICT|INTERRES
    71   34  104 1    
    72   35   36 2    
    73   37   38 2    
    74   37   39 am   BACKBONE|DICT|INTERRES
    75   39   40 1    
    76   39  105 1    
    77   40   41 1    
    78   40   42 1    
    79   40  106 1    
    80   41  107 1    
    81   41  108 1    
    82   41  109 1    
    83   42   43 2    
    84   42   44 am   BACKBONE|DICT|INTERRES
    85   44   45 1    
    86   44  110 1    
    87   45   46 1    
    88   45   47 1    
    89   45  111 1    
    90   46  112 1    
    91   46  113 1    
    92   46  114 1    
    93   47   48 2    
    94   47   49 am   BACKBONE|DICT|INTERRES
    95   49   50 1    
    96   49  115 1    
    97   50   51 1    
    98   50   52 1    
    99   50  116 1    
   100   51  117 1    
   101   51  118 1    
   102   51  119 1    
   103   52   53 2    
   104   52   54 am   BACKBONE|DICT|INTERRES
   105   54   55 1    
   106   54  120 1    
   107   55   56 1    
   108   55   57 1    
   109   55  121 1    
   110   56  122 1    
   111   56  123 1    
   112   56  124 1    
   113   57   58 2    
   114   57   59 am   BACKBONE|DICT|INTERRES
   115   59   60 1    
   116   59  125 1    
   117   60   61 1    
   118   60   62 1    
   119   60  126 1    
   120   61  127 1    
   121   61  128 1    
   122   61  129 1    
   123   62   63 2    
   124   62   64 am   BACKBONE|DICT|INTERRES
   125   64   65 1    
   126   64  130 1    
   127   65   66 1    
   128   65   69 1    
   129   65  131 1    
   130   66   67 am   BACKBONE|DICT|INTERRES
   131   66   68 2    
   132   67  132 1    
   133   67  133 1    
   134   69   70 1    
   135   69  134 1    
   136   69  135 1    
   137   70   71 1    
   138   71  136 1    
   139   71  137 1    
@<TRIPOS>SUBSTRUCTURE
     1 UNK         1 GROUP             0       ****    0 ROOT    
