@<TRIPOS>MOLECULE
3R136
137   139    1
SMALL
USER_CHARGES


@<TRIPOS>ATOM
      1 CA         28.5407   19.3828   -3.3417 C.3       0 UNK        -0.1979 
      2 C          29.1561   20.4796   -2.4853 C.2       0 UNK         0.4864 
      3 O          30.1786   21.0506   -2.8663 O.2       0 UNK        -0.5359 
      4 N          28.5406   20.7778   -1.3325 N.am      1 UNK        -0.4318 
      5 CA         28.9928   21.7998   -0.3795 C.3       1 UNK         0.0824 
      6 C6         28.3325   21.6136    1.0094 C.3       12 UNK        -0.0944 
      7 S7         29.1667   20.3181    1.9805 S.3       12 UNK        -0.2672 
      8 C8         29.2935   21.1176    3.6231 C.3       12 UNK         0.0333 
      9 C9         30.2871   22.2787    3.7641 C.ar      12 UNK        -0.0807 
     10 C10        31.0520   22.7806    2.6992 C.ar      12 UNK        -0.0894 
     11 C11        31.9392   23.8442    2.8917 C.ar      12 UNK        -0.0804 
     12 C12        32.0930   24.3794    4.1703 C.ar      12 UNK        -0.0824 
     13 C13        31.3206   23.9205    5.2392 C.ar      12 UNK        -0.0762 
     14 C14        30.4232   22.8696    5.0266 C.ar      12 UNK        -0.0782 
     15 C15        31.4877   24.5208    6.6322 C.3       12 UNK         0.0230 
     16 S16        31.7128   26.3349    6.6278 S.3       12 UNK        -0.2608 
     17 C17        30.0039   26.9667    6.6540 C.3       12 UNK        -0.0989 
     18 CA         29.6166   27.7161    5.3425 C.3       5 UNK         0.0716 
     19 N          29.2852   26.8212    4.2218 N.am      5 UNK        -0.4135 
     20 C          28.2847   25.9307    4.1675 C.2       4 UNK         0.5031 
     21 O          27.5208   25.7037    5.1072 O.2       4 UNK        -0.5229 
     22 CA         28.0750   25.2056    2.8211 C.3       4 UNK         0.0329 
     23 CB         26.6747   24.5644    2.7195 C.3       4 UNK        -0.2001 
     24 N          28.3277   26.0122    1.6176 N.am      4 UNK        -0.4303 
     25 C          27.8048   27.2130    1.3207 C.2       3 UNK         0.5044 
     26 O          27.1683   27.8999    2.1187 O.2       3 UNK        -0.5152 
     27 CA         28.0190   27.7462   -0.1079 C.3       3 UNK         0.0319 
     28 CB         29.2615   28.6449   -0.1680 C.3       3 UNK        -0.2001 
     29 N          28.1448   26.6953   -1.1190 N.am      3 UNK        -0.4354 
     30 C          27.1807   25.8358   -1.4781 C.2       2 UNK         0.4964 
     31 O          26.0311   25.8647   -1.0380 O.2       2 UNK        -0.5047 
     32 CA         27.5691   24.7418   -2.4921 C.3       2 UNK         0.0288 
     33 CB         28.7154   25.1590   -3.4422 C.3       2 UNK        -0.2113 
     34 N          27.8860   23.4640   -1.8407 N.am      2 UNK        -0.4145 
     35 C          28.8028   23.2460   -0.8826 C.2       1 UNK         0.5006 
     36 O          29.4944   24.1327   -0.3796 O.2       1 UNK        -0.5103 
     37 C          28.5621   28.8248    5.6020 C.2       5 UNK         0.5055 
     38 O          28.7482   29.6083    6.5344 O.2       5 UNK        -0.5220 
     39 N          27.5026   28.9186    4.7864 N.am      6 UNK        -0.4450 
     40 CA         26.4238   29.9010    4.9278 C.3       6 UNK         0.0367 
     41 CB         25.0890   29.2119    4.5964 C.3       6 UNK        -0.1929 
     42 C          26.6249   31.1356    4.0317 C.2       6 UNK         0.5070 
     43 O          25.8841   32.1086    4.1787 O.2       6 UNK        -0.5237 
     44 N          27.5973   31.0827    3.1157 N.am      7 UNK        -0.4739 
     45 CA         27.9048   32.1172    2.1330 C.3       7 UNK         0.0276 
     46 CB         27.0053   31.9175    0.8962 C.3       7 UNK        -0.1927 
     47 C          29.3942   32.0481    1.7691 C.2       7 UNK         0.5013 
     48 O          30.1151   31.1909    2.2914 O.2       7 UNK        -0.5193 
     49 N          29.8218   32.9455    0.8684 N.am      8 UNK        -0.4253 
     50 CA         31.1522   33.0111    0.2456 C.3       8 UNK         0.0242 
     51 CB         31.3513   31.8115   -0.7074 C.3       8 UNK        -0.2000 
     52 C          32.3000   33.1506    1.2635 C.2       8 UNK         0.4948 
     53 O          33.3138   32.4636    1.1384 O.2       8 UNK        -0.5275 
     54 N          32.1002   34.0088    2.2767 N.am      9 UNK        -0.4246 
     55 CA         32.9992   34.2347    3.4199 C.3       9 UNK         0.0261 
     56 CB         34.2890   34.9534    2.9678 C.3       9 UNK        -0.1959 
     57 C          33.2775   32.9426    4.2188 C.2       9 UNK         0.5033 
     58 O          34.4162   32.6968    4.6208 O.2       9 UNK        -0.5390 
     59 N          32.2156   32.1460    4.4099 N.am      10 UNK        -0.4215 
     60 CA         32.1870   30.8041    4.9943 C.3       10 UNK         0.0240 
     61 CB         32.6583   30.8017    6.4645 C.3       10 UNK        -0.1982 
     62 C          32.9198   29.7791    4.1085 C.2       10 UNK         0.4970 
     63 O          33.8791   29.1478    4.5552 O.2       10 UNK        -0.4916 
     64 N          32.4181   29.6161    2.8760 N.am      11 UNK        -0.4279 
     65 CA         32.8580   28.6045    1.8995 C.3       11 UNK         0.1003 
     66 C          34.2995   28.8213    1.3427 C.2       11 UNK         0.5709 
     67 N          34.7675   30.0541    1.2028 N.am      11 UNK        -0.7358 
     68 O          35.0069   27.8705    1.0165 O.2       11 UNK        -0.4999 
     69 C69        32.5996   27.1586    2.4220 C.3       12 UNK        -0.0954 
     70 S70        32.0504   25.9949    1.1289 S.3       12 UNK        -0.2268 
     71 C71        32.7395   24.4139    1.7263 C.3       12 UNK         0.0203 
     72 H72        29.2562   18.5735   -3.4850 H         1 UNK         0.0888 
     73 H73        27.6431   18.9644   -2.8866 H         1 UNK         0.0888 
     74 H74        28.2720   19.7777   -4.3211 H         1 UNK         0.0888 
     75 H75        27.7181   20.2575   -1.0613 H         1 UNK         0.3017 
     76 H76        30.0726   21.6785   -0.2714 H         1 UNK         0.0873 
     77 H77        27.2720   21.3730    0.9174 H         1 UNK         0.0745 
     78 H78        28.3747   22.5340    1.5889 H         1 UNK         0.0745 
     79 H79        28.3009   21.4641    3.9153 H         1 UNK         0.0705 
     80 H80        29.5696   20.3446    4.3417 H         1 UNK         0.0705 
     81 H81        30.9641   22.3581    1.7114 H         1 UNK         0.1334 
     82 H82        32.8096   25.1698    4.3351 H         1 UNK         0.1417 
     83 H83        29.8341   22.4976    5.8544 H         1 UNK         0.1562 
     84 H84        32.3703   24.0699    7.0876 H         1 UNK         0.0748 
     85 H85        30.6465   24.2595    7.2759 H         1 UNK         0.0748 
     86 H86        29.9619   27.6305    7.5194 H         1 UNK         0.0940 
     87 H87        29.3027   26.1643    6.8822 H         1 UNK         0.0940 
     88 H88        30.4969   28.2634    5.0098 H         1 UNK         0.0703 
     89 H89        29.8476   26.9303    3.3907 H         1 UNK         0.3081 
     90 H90        28.8147   24.4097    2.8010 H         1 UNK         0.0719 
     91 H91        26.5280   24.0691    1.7599 H         1 UNK         0.0809 
     92 H92        26.5276   23.8153    3.4986 H         1 UNK         0.0809 
     93 H93        25.8865   25.3106    2.8281 H         1 UNK         0.0809 
     94 H94        28.8632   25.5427    0.8911 H         1 UNK         0.2990 
     95 H95        27.1456   28.3511   -0.3598 H         1 UNK         0.0690 
     96 H96        29.3278   29.1693   -1.1214 H         1 UNK         0.0788 
     97 H97        30.1790   28.0730   -0.0341 H         1 UNK         0.0788 
     98 H98        29.2317   29.3996    0.6150 H         1 UNK         0.0788 
     99 H99        29.0655   26.5501   -1.5079 H         1 UNK         0.2993 
    100 H100       26.6832   24.5690   -3.1056 H         1 UNK         0.0949 
    101 H101       28.4987   26.1124   -3.9264 H         1 UNK         0.0767 
    102 H102       29.6714   25.2573   -2.9268 H         1 UNK         0.0767 
    103 H103       28.8491   24.4219   -4.2342 H         1 UNK         0.0767 
    104 H104       27.3482   22.6694   -2.1563 H         1 UNK         0.3013 
    105 H105       27.4246   28.2946    3.9867 H         1 UNK         0.3121 
    106 H106       26.3719   30.2531    5.9602 H         1 UNK         0.0774 
    107 H107       24.9182   28.3487    5.2400 H         1 UNK         0.0815 
    108 H108       24.2500   29.8940    4.7394 H         1 UNK         0.0815 
    109 H109       25.0576   28.8694    3.5613 H         1 UNK         0.0815 
    110 H110       28.2052   30.2750    3.0868 H         1 UNK         0.2987 
    111 H111       27.7172   33.1007    2.5695 H         1 UNK         0.0949 
    112 H112       27.1674   32.6935    0.1477 H         1 UNK         0.0806 
    113 H113       27.1897   30.9553    0.4170 H         1 UNK         0.0806 
    114 H114       25.9495   31.9546    1.1654 H         1 UNK         0.0806 
    115 H115       29.1548   33.6235    0.5258 H         1 UNK         0.3010 
    116 H116       31.1709   33.9194   -0.3586 H         1 UNK         0.0829 
    117 H117       30.5415   31.7412   -1.4334 H         1 UNK         0.0813 
    118 H118       32.2813   31.9072   -1.2692 H         1 UNK         0.0813 
    119 H119       31.3973   30.8672   -0.1645 H         1 UNK         0.0813 
    120 H120       31.2314   34.5253    2.2902 H         1 UNK         0.3038 
    121 H121       32.4722   34.9044    4.1013 H         1 UNK         0.0769 
    122 H122       34.9001   34.3214    2.3226 H         1 UNK         0.0811 
    123 H123       34.9031   35.2305    3.8255 H         1 UNK         0.0811 
    124 H124       34.0630   35.8699    2.4230 H         1 UNK         0.0811 
    125 H125       31.3469   32.4355    3.9818 H         1 UNK         0.3204 
    126 H126       31.1361   30.5141    4.9986 H         1 UNK         0.0748 
    127 H127       32.5167   29.8168    6.9119 H         1 UNK         0.0771 
    128 H128       33.7159   31.0494    6.5582 H         1 UNK         0.0771 
    129 H129       32.0910   31.5138    7.0635 H         1 UNK         0.0771 
    130 H130       31.6412   30.2064    2.5846 H         1 UNK         0.2980 
    131 H131       32.2081   28.7677    1.0405 H         1 UNK         0.0545 
    132 H132       34.1811   30.8682    1.3771 H         1 UNK         0.3459 
    133 H133       35.6985   30.1837    0.8428 H         1 UNK         0.3459 
    134 H134       33.4896   26.7735    2.9215 H         1 UNK         0.0616 
    135 H135       31.8192   27.1608    3.1809 H         1 UNK         0.0616 
    136 H136       32.7440   23.7078    0.8947 H         1 UNK         0.0634 
    137 H137       33.7827   24.5499    2.0153 H         1 UNK         0.0634 
@<TRIPOS>BOND
     1    1    2 1    
     2    1   72 1    
     3    1   73 1    
     4    1   74 1    
     5    2    3 2    
     6    2    4 am   BACKBONE|DICT|INTERRES
     7    4    5 1    
     8    4   75 1    
     9    5    6 1    
    10    5   35 1    
    11    5   76 1    
    12    6    7 1    
    13    6   77 1    
    14    6   78 1    
    15    7    8 1    
    16    8    9 1    
    17    8   79 1    
    18    8   80 1    
    19    9   10 ar   
    20    9   14 ar   
    21   10   11 ar   
    22   10   81 1    
    23   11   12 ar   
    24   11   71 1    
    25   12   13 ar   
    26   12   82 1    
    27   13   14 ar   
    28   13   15 1    
    29   14   83 1    
    30   15   16 1    
    31   15   84 1    
    32   15   85 1    
    33   16   17 1    
    34   17   18 1    
    35   17   86 1    
    36   17   87 1    
    37   18   19 1    
    38   18   37 1    
    39   18   88 1    
    40   19   20 am   BACKBONE|DICT|INTERRES
    41   19   89 1    
    42   20   21 2    
    43   20   22 1    
    44   22   23 1    
    45   22   24 1    
    46   22   90 1    
    47   23   91 1    
    48   23   92 1    
    49   23   93 1    
    50   24   25 am   BACKBONE|DICT|INTERRES
    51   24   94 1    
    52   25   26 2    
    53   25   27 1    
    54   27   28 1    
    55   27   29 1    
    56   27   95 1    
    57   28   96 1    
    58   28   97 1    
    59   28   98 1    
    60   29   30 am   BACKBONE|DICT|INTERRES
    61   29   99 1    
    62   30   31 2    
    63   30   32 1    
    64   32   33 1    
    65   32   34 1    
    66   32  100 1    
    67   33  101 1    
    68   33  102 1    
    69   33  103 1    
    70   34   35 am   BACKBONE|DICT|INTERRES
    71   34  104 1    
    72   35   36 2    
    73   37   38 2    
    74   37   39 am   BACKBONE|DICT|INTERRES
    75   39   40 1    
    76   39  105 1    
    77   40   41 1    
    78   40   42 1    
    79   40  106 1    
    80   41  107 1    
    81   41  108 1    
    82   41  109 1    
    83   42   43 2    
    84   42   44 am   BACKBONE|DICT|INTERRES
    85   44   45 1    
    86   44  110 1    
    87   45   46 1    
    88   45   47 1    
    89   45  111 1    
    90   46  112 1    
    91   46  113 1    
    92   46  114 1    
    93   47   48 2    
    94   47   49 am   BACKBONE|DICT|INTERRES
    95   49   50 1    
    96   49  115 1    
    97   50   51 1    
    98   50   52 1    
    99   50  116 1    
   100   51  117 1    
   101   51  118 1    
   102   51  119 1    
   103   52   53 2    
   104   52   54 am   BACKBONE|DICT|INTERRES
   105   54   55 1    
   106   54  120 1    
   107   55   56 1    
   108   55   57 1    
   109   55  121 1    
   110   56  122 1    
   111   56  123 1    
   112   56  124 1    
   113   57   58 2    
   114   57   59 am   BACKBONE|DICT|INTERRES
   115   59   60 1    
   116   59  125 1    
   117   60   61 1    
   118   60   62 1    
   119   60  126 1    
   120   61  127 1    
   121   61  128 1    
   122   61  129 1    
   123   62   63 2    
   124   62   64 am   BACKBONE|DICT|INTERRES
   125   64   65 1    
   126   64  130 1    
   127   65   66 1    
   128   65   69 1    
   129   65  131 1    
   130   66   67 am   BACKBONE|DICT|INTERRES
   131   66   68 2    
   132   67  132 1    
   133   67  133 1    
   134   69   70 1    
   135   69  134 1    
   136   69  135 1    
   137   70   71 1    
   138   71  136 1    
   139   71  137 1    
@<TRIPOS>SUBSTRUCTURE
     1 UNK         1 GROUP             0       ****    0 ROOT    
