@<TRIPOS>MOLECULE
3R136
137   139    1
SMALL
USER_CHARGES


@<TRIPOS>ATOM
      1 CA         29.9858   23.5256    4.8267 C.3       0 UNK        -0.1979 
      2 C          29.5274   22.1582    4.3386 C.2       0 UNK         0.4864 
      3 O          29.2741   21.2683    5.1523 O.2       0 UNK        -0.5359 
      4 N          29.4292   21.9905    3.0150 N.am      1 UNK        -0.4318 
      5 CA         28.9269   20.7933    2.3329 C.3       1 UNK         0.0824 
      6 C6         29.6888   20.5616    0.9978 C.3       12 UNK        -0.0944 
      7 S7         29.5149   21.9568   -0.1716 S.3       12 UNK        -0.2672 
      8 C8         31.2064   22.6212   -0.2118 C.3       12 UNK         0.0333 
      9 C9         31.1992   24.1276   -0.4121 C.ar      12 UNK        -0.0807 
     10 C10        31.6360   24.9718    0.6131 C.ar      12 UNK        -0.0894 
     11 C11        31.6640   26.3556    0.4264 C.ar      12 UNK        -0.0804 
     12 C12        31.2689   26.8911   -0.8015 C.ar      12 UNK        -0.0824 
     13 C13        30.7885   26.0626   -1.8212 C.ar      12 UNK        -0.0762 
     14 C14        30.7678   24.6786   -1.6234 C.ar      12 UNK        -0.0782 
     15 C15        30.3028   26.6570   -3.1382 C.3       12 UNK         0.0230 
     16 S16        28.5765   27.2475   -3.0380 S.3       12 UNK        -0.2608 
     17 C17        28.7758   28.7904   -2.0719 C.3       12 UNK        -0.0989 
     18 CA         28.2239   28.7473   -0.6097 C.3       5 UNK         0.0716 
     19 N          28.2590   27.4071   -0.0146 N.am      5 UNK        -0.4135 
     20 C          27.5416   26.9910    1.0358 C.2       4 UNK         0.5031 
     21 O          26.7456   27.7082    1.6483 O.2       4 UNK        -0.5229 
     22 CA         27.7262   25.5139    1.4334 C.3       4 UNK         0.0329 
     23 CB         27.0406   25.1760    2.7723 C.3       4 UNK        -0.2001 
     24 N          27.2898   24.5800    0.3850 N.am      4 UNK        -0.4303 
     25 C          26.1100   24.5630   -0.2604 C.2       3 UNK         0.5044 
     26 O          25.1896   25.3574   -0.0678 O.2       3 UNK        -0.5152 
     27 CA         25.9173   23.4373   -1.2877 C.3       3 UNK         0.0319 
     28 CB         26.8964   23.5714   -2.4677 C.3       3 UNK        -0.2001 
     29 N          26.0553   22.1233   -0.6566 N.am      3 UNK        -0.4354 
     30 C          25.0952   21.5321    0.0729 C.2       2 UNK         0.4964 
     31 O          23.9624   21.9927    0.2183 O.2       2 UNK        -0.5047 
     32 CA         25.4511   20.1991    0.7590 C.3       2 UNK         0.0288 
     33 CB         25.1350   19.0133   -0.1672 C.3       2 UNK        -0.2113 
     34 N          26.8536   20.1286    1.1770 N.am      2 UNK        -0.4145 
     35 C          27.3884   20.8648    2.1626 C.2       1 UNK         0.5006 
     36 O          26.7119   21.5880    2.8979 O.2       1 UNK        -0.5103 
     37 C          28.9316   29.7596    0.3233 C.2       5 UNK         0.5055 
     38 O          30.0581   30.1794    0.0474 O.2       5 UNK        -0.5220 
     39 N          28.2851   30.0883    1.4485 N.am      6 UNK        -0.4450 
     40 CA         28.8110   30.9010    2.5476 C.3       6 UNK         0.0367 
     41 CB         27.9791   30.6266    3.8133 C.3       6 UNK        -0.1929 
     42 C          28.9202   32.4011    2.2159 C.2       6 UNK         0.5070 
     43 O          28.3013   33.2352    2.8783 O.2       6 UNK        -0.5237 
     44 N          29.7339   32.7192    1.2035 N.am      7 UNK        -0.4739 
     45 CA         30.1312   34.0786    0.8282 C.3       7 UNK         0.0276 
     46 CB         30.6902   34.0546   -0.6037 C.3       7 UNK        -0.1927 
     47 C          31.1586   34.6914    1.8004 C.2       7 UNK         0.5013 
     48 O          31.3315   35.9110    1.8018 O.2       7 UNK        -0.5193 
     49 N          31.8158   33.8462    2.6034 N.am      8 UNK        -0.4253 
     50 CA         32.7537   34.2115    3.6572 C.3       8 UNK         0.0242 
     51 CB         34.1902   34.1648    3.1077 C.3       8 UNK        -0.2000 
     52 C          32.5796   33.2279    4.8192 C.2       8 UNK         0.4948 
     53 O          32.1476   32.0910    4.6019 O.2       8 UNK        -0.5275 
     54 N          32.9625   33.6697    6.0254 N.am      9 UNK        -0.4246 
     55 CA         32.8615   32.9168    7.2832 C.3       9 UNK         0.0261 
     56 CB         33.2543   33.8328    8.4537 C.3       9 UNK        -0.1959 
     57 C          33.6828   31.6146    7.3237 C.2       9 UNK         0.5033 
     58 O          33.3517   30.7214    8.1048 O.2       9 UNK        -0.5390 
     59 N          34.7054   31.5063    6.4622 N.am      10 UNK        -0.4215 
     60 CA         35.5360   30.3143    6.2575 C.3       10 UNK         0.0240 
     61 CB         36.6383   30.6423    5.2370 C.3       10 UNK        -0.1982 
     62 C          34.7524   29.0607    5.8177 C.2       10 UNK         0.4970 
     63 O          35.2408   27.9498    6.0276 O.2       10 UNK        -0.4916 
     64 N          33.5579   29.2522    5.2406 N.am      11 UNK        -0.4279 
     65 CA         32.5933   28.1855    4.9405 C.3       11 UNK         0.1003 
     66 C          31.9209   27.5546    6.1995 C.2       11 UNK         0.5709 
     67 N          32.0016   28.1612    7.3795 N.am      11 UNK        -0.7358 
     68 O          31.3300   26.4819    6.1109 O.2       11 UNK        -0.4999 
     69 C69        31.5500   28.6863    3.9079 C.3       12 UNK        -0.0954 
     70 S70        30.8566   27.3653    2.8624 S.3       12 UNK        -0.2268 
     71 C71        32.1147   27.2735    1.5516 C.3       12 UNK         0.0203 
     72 H72        29.2195   23.9765    5.4566 H         1 UNK         0.0888 
     73 H73        30.8972   23.4313    5.4164 H         1 UNK         0.0888 
     74 H74        30.1877   24.2109    4.0030 H         1 UNK         0.0888 
     75 H75        29.6331   22.7663    2.4033 H         1 UNK         0.3017 
     76 H76        29.1158   19.9247    2.9674 H         1 UNK         0.0873 
     77 H77        30.7445   20.3910    1.2132 H         1 UNK         0.0745 
     78 H78        29.3636   19.6451    0.5033 H         1 UNK         0.0745 
     79 H79        31.7615   22.1435   -1.0203 H         1 UNK         0.0705 
     80 H80        31.7314   22.3719    0.7114 H         1 UNK         0.0705 
     81 H81        31.9566   24.5572    1.5593 H         1 UNK         0.1334 
     82 H82        31.3145   27.9606   -0.9472 H         1 UNK         0.1417 
     83 H83        30.4176   24.0258   -2.4117 H         1 UNK         0.1562 
     84 H84        30.3643   25.9075   -3.9287 H         1 UNK         0.0748 
     85 H85        30.9588   27.4714   -3.4497 H         1 UNK         0.0748 
     86 H86        28.2612   29.5844   -2.6157 H         1 UNK         0.0940 
     87 H87        29.8254   29.0772   -2.1203 H         1 UNK         0.0940 
     88 H88        27.1729   29.0402   -0.6631 H         1 UNK         0.0703 
     89 H89        28.8879   26.7554   -0.4632 H         1 UNK         0.3081 
     90 H90        28.7978   25.3585    1.5656 H         1 UNK         0.0719 
     91 H91        25.9567   25.2770    2.7085 H         1 UNK         0.0809 
     92 H92        27.3860   25.8403    3.5656 H         1 UNK         0.0809 
     93 H93        27.2632   24.1578    3.0864 H         1 UNK         0.0809 
     94 H94        27.9686   23.8781    0.1222 H         1 UNK         0.2990 
     95 H95        24.9064   23.5247   -1.6928 H         1 UNK         0.0690 
     96 H96        26.7056   22.8123   -3.2263 H         1 UNK         0.0788 
     97 H97        27.9368   23.4786   -2.1592 H         1 UNK         0.0788 
     98 H98        26.7892   24.5438   -2.9506 H         1 UNK         0.0788 
     99 H99        26.9605   21.6790   -0.7168 H         1 UNK         0.2993 
    100 H100       24.8262   20.1126    1.6510 H         1 UNK         0.0949 
    101 H101       24.0883   19.0280   -0.4748 H         1 UNK         0.0767 
    102 H102       25.7412   19.0338   -1.0739 H         1 UNK         0.0767 
    103 H103       25.3100   18.0609    0.3336 H         1 UNK         0.0767 
    104 H104       27.4628   19.5462    0.6211 H         1 UNK         0.3013 
    105 H105       27.4068   29.6097    1.6236 H         1 UNK         0.3121 
    106 H106       29.8285   30.5651    2.7472 H         1 UNK         0.0774 
    107 H107       28.3771   31.1744    4.6687 H         1 UNK         0.0815 
    108 H108       26.9386   30.9273    3.6852 H         1 UNK         0.0815 
    109 H109       27.9939   29.5679    4.0741 H         1 UNK         0.0815 
    110 H110       30.1466   31.9488    0.6811 H         1 UNK         0.2987 
    111 H111       29.2450   34.7170    0.8434 H         1 UNK         0.0949 
    112 H112       31.5770   33.4239   -0.6801 H         1 UNK         0.0806 
    113 H113       29.9506   33.6806   -1.3120 H         1 UNK         0.0806 
    114 H114       30.9727   35.0565   -0.9302 H         1 UNK         0.0806 
    115 H115       31.5726   32.8643    2.5832 H         1 UNK         0.3010 
    116 H116       32.5287   35.2178    4.0178 H         1 UNK         0.0829 
    117 H117       34.3163   34.8558    2.2739 H         1 UNK         0.0813 
    118 H118       34.9153   34.4470    3.8720 H         1 UNK         0.0813 
    119 H119       34.4550   33.1665    2.7560 H         1 UNK         0.0813 
    120 H120       33.3197   34.6121    6.1000 H         1 UNK         0.3038 
    121 H121       31.8141   32.6336    7.4084 H         1 UNK         0.0769 
    122 H122       33.1610   33.3103    9.4071 H         1 UNK         0.0811 
    123 H123       32.6103   34.7109    8.5057 H         1 UNK         0.0811 
    124 H124       34.2865   34.1755    8.3704 H         1 UNK         0.0811 
    125 H125       34.8992   32.2980    5.8672 H         1 UNK         0.3204 
    126 H126       36.0093   30.0783    7.2128 H         1 UNK         0.0748 
    127 H127       37.2944   29.7847    5.0807 H         1 UNK         0.0771 
    128 H128       36.2217   30.9149    4.2663 H         1 UNK         0.0771 
    129 H129       37.2645   31.4669    5.5786 H         1 UNK         0.0771 
    130 H130       33.2235   30.1989    5.1082 H         1 UNK         0.2980 
    131 H131       33.1657   27.3821    4.4733 H         1 UNK         0.0545 
    132 H132       31.5664   27.7289    8.1783 H         1 UNK         0.3459 
    133 H133       32.4979   29.0388    7.4937 H         1 UNK         0.3459 
    134 H134       30.7311   29.2011    4.4130 H         1 UNK         0.0616 
    135 H135       31.9939   29.4293    3.2429 H         1 UNK         0.0616 
    136 H136       32.3104   28.2766    1.1689 H         1 UNK         0.0634 
    137 H137       33.0532   26.9092    1.9715 H         1 UNK         0.0634 
@<TRIPOS>BOND
     1    1    2 1    
     2    1   72 1    
     3    1   73 1    
     4    1   74 1    
     5    2    3 2    
     6    2    4 am   BACKBONE|DICT|INTERRES
     7    4    5 1    
     8    4   75 1    
     9    5    6 1    
    10    5   35 1    
    11    5   76 1    
    12    6    7 1    
    13    6   77 1    
    14    6   78 1    
    15    7    8 1    
    16    8    9 1    
    17    8   79 1    
    18    8   80 1    
    19    9   10 ar   
    20    9   14 ar   
    21   10   11 ar   
    22   10   81 1    
    23   11   12 ar   
    24   11   71 1    
    25   12   13 ar   
    26   12   82 1    
    27   13   14 ar   
    28   13   15 1    
    29   14   83 1    
    30   15   16 1    
    31   15   84 1    
    32   15   85 1    
    33   16   17 1    
    34   17   18 1    
    35   17   86 1    
    36   17   87 1    
    37   18   19 1    
    38   18   37 1    
    39   18   88 1    
    40   19   20 am   BACKBONE|DICT|INTERRES
    41   19   89 1    
    42   20   21 2    
    43   20   22 1    
    44   22   23 1    
    45   22   24 1    
    46   22   90 1    
    47   23   91 1    
    48   23   92 1    
    49   23   93 1    
    50   24   25 am   BACKBONE|DICT|INTERRES
    51   24   94 1    
    52   25   26 2    
    53   25   27 1    
    54   27   28 1    
    55   27   29 1    
    56   27   95 1    
    57   28   96 1    
    58   28   97 1    
    59   28   98 1    
    60   29   30 am   BACKBONE|DICT|INTERRES
    61   29   99 1    
    62   30   31 2    
    63   30   32 1    
    64   32   33 1    
    65   32   34 1    
    66   32  100 1    
    67   33  101 1    
    68   33  102 1    
    69   33  103 1    
    70   34   35 am   BACKBONE|DICT|INTERRES
    71   34  104 1    
    72   35   36 2    
    73   37   38 2    
    74   37   39 am   BACKBONE|DICT|INTERRES
    75   39   40 1    
    76   39  105 1    
    77   40   41 1    
    78   40   42 1    
    79   40  106 1    
    80   41  107 1    
    81   41  108 1    
    82   41  109 1    
    83   42   43 2    
    84   42   44 am   BACKBONE|DICT|INTERRES
    85   44   45 1    
    86   44  110 1    
    87   45   46 1    
    88   45   47 1    
    89   45  111 1    
    90   46  112 1    
    91   46  113 1    
    92   46  114 1    
    93   47   48 2    
    94   47   49 am   BACKBONE|DICT|INTERRES
    95   49   50 1    
    96   49  115 1    
    97   50   51 1    
    98   50   52 1    
    99   50  116 1    
   100   51  117 1    
   101   51  118 1    
   102   51  119 1    
   103   52   53 2    
   104   52   54 am   BACKBONE|DICT|INTERRES
   105   54   55 1    
   106   54  120 1    
   107   55   56 1    
   108   55   57 1    
   109   55  121 1    
   110   56  122 1    
   111   56  123 1    
   112   56  124 1    
   113   57   58 2    
   114   57   59 am   BACKBONE|DICT|INTERRES
   115   59   60 1    
   116   59  125 1    
   117   60   61 1    
   118   60   62 1    
   119   60  126 1    
   120   61  127 1    
   121   61  128 1    
   122   61  129 1    
   123   62   63 2    
   124   62   64 am   BACKBONE|DICT|INTERRES
   125   64   65 1    
   126   64  130 1    
   127   65   66 1    
   128   65   69 1    
   129   65  131 1    
   130   66   67 am   BACKBONE|DICT|INTERRES
   131   66   68 2    
   132   67  132 1    
   133   67  133 1    
   134   69   70 1    
   135   69  134 1    
   136   69  135 1    
   137   70   71 1    
   138   71  136 1    
   139   71  137 1    
@<TRIPOS>SUBSTRUCTURE
     1 UNK         1 GROUP             0       ****    0 ROOT    
