@<TRIPOS>MOLECULE
3R136
137   139    1
SMALL
USER_CHARGES


@<TRIPOS>ATOM
      1 CA         29.8290   26.3697    4.1067 C.3       0 UNK        -0.1979 
      2 C          28.9622   25.2062    3.6521 C.2       0 UNK         0.4864 
      3 O          27.9768   24.8831    4.3179 O.2       0 UNK        -0.5359 
      4 N          29.3114   24.5759    2.5214 N.am      1 UNK        -0.4318 
      5 CA         28.5000   23.5567    1.8489 C.3       1 UNK         0.0824 
      6 C6         29.3202   22.7253    0.8297 C.3       12 UNK        -0.0944 
      7 S7         30.6025   21.7148    1.6452 S.3       12 UNK        -0.2672 
      8 C8         32.1335   22.3113    0.8569 C.3       12 UNK         0.0333 
      9 C9         32.4254   23.7653    1.1972 C.ar      12 UNK        -0.0807 
     10 C10        32.7864   24.1220    2.4995 C.ar      12 UNK        -0.0894 
     11 C11        33.0354   25.4577    2.8250 C.ar      12 UNK        -0.0804 
     12 C12        32.9323   26.4385    1.8342 C.ar      12 UNK        -0.0824 
     13 C13        32.5803   26.0943    0.5256 C.ar      12 UNK        -0.0762 
     14 C14        32.3352   24.7534    0.2123 C.ar      12 UNK        -0.0782 
     15 C15        32.4817   27.1721   -0.5484 C.3       12 UNK         0.0230 
     16 S16        30.8727   27.1758   -1.4051 S.3       12 UNK        -0.2608 
     17 C17        29.7269   27.4948   -0.0231 C.3       12 UNK        -0.0989 
     18 CA         28.3398   27.9885   -0.5095 C.3       5 UNK         0.0716 
     19 N          27.6967   27.0086   -1.3840 N.am      5 UNK        -0.4135 
     20 C          27.0221   27.2855   -2.5047 C.2       4 UNK         0.5031 
     21 O          26.7931   28.4308   -2.8954 O.2       4 UNK        -0.5229 
     22 CA         26.5087   26.0932   -3.3244 C.3       4 UNK         0.0329 
     23 CB         27.6464   25.4617   -4.1453 C.3       4 UNK        -0.2001 
     24 N          25.8834   25.0764   -2.4763 N.am      4 UNK        -0.4303 
     25 C          24.7659   24.4031   -2.7870 C.2       3 UNK         0.5044 
     26 O          24.1680   24.5242   -3.8574 O.2       3 UNK        -0.5152 
     27 CA         24.2045   23.4278   -1.7301 C.3       3 UNK         0.0319 
     28 CB         24.6331   21.9867   -2.0503 C.3       3 UNK        -0.2001 
     29 N          24.6090   23.7523   -0.3597 N.am      3 UNK        -0.4354 
     30 C          24.2789   24.8763    0.2907 C.2       2 UNK         0.4964 
     31 O          23.4604   25.6892   -0.1384 O.2       2 UNK        -0.5047 
     32 CA         24.9946   25.1766    1.6221 C.3       2 UNK         0.0288 
     33 CB         24.0111   25.0652    2.7986 C.3       2 UNK        -0.2113 
     34 N          26.1925   24.3815    1.9303 N.am      2 UNK        -0.4145 
     35 C          27.2956   24.2461    1.1790 C.2       1 UNK         0.5006 
     36 O          27.3986   24.6633    0.0229 O.2       1 UNK        -0.5103 
     37 C          27.3934   28.3015    0.6624 C.2       5 UNK         0.5055 
     38 O          27.7073   27.9957    1.8135 O.2       5 UNK        -0.5220 
     39 N          26.2355   28.8989    0.3546 N.am      6 UNK        -0.4450 
     40 CA         25.2320   29.3393    1.3291 C.3       6 UNK         0.0367 
     41 CB         23.8471   29.3306    0.6557 C.3       6 UNK        -0.1929 
     42 C          25.5969   30.7161    1.9212 C.2       6 UNK         0.5070 
     43 O          24.8085   31.6588    1.8297 O.2       6 UNK        -0.5237 
     44 N          26.8015   30.8187    2.4904 N.am      7 UNK        -0.4739 
     45 CA         27.3996   32.0311    3.0445 C.3       7 UNK         0.0276 
     46 CB         27.8498   32.9634    1.8996 C.3       7 UNK        -0.1927 
     47 C          28.5890   31.6407    3.9335 C.2       7 UNK         0.5013 
     48 O          28.9787   30.4696    3.9598 O.2       7 UNK        -0.5193 
     49 N          29.1585   32.6330    4.6306 N.am      8 UNK        -0.4253 
     50 CA         30.4106   32.5044    5.3817 C.3       8 UNK         0.0242 
     51 CB         30.6126   33.7607    6.2451 C.3       8 UNK        -0.2000 
     52 C          31.6105   32.2960    4.4394 C.2       8 UNK         0.4948 
     53 O          31.5977   32.7950    3.3105 O.2       8 UNK        -0.5275 
     54 N          32.6292   31.5808    4.9242 N.am      9 UNK        -0.4246 
     55 CA         33.8261   31.2120    4.1739 C.3       9 UNK         0.0261 
     56 CB         33.5375   29.9453    3.3439 C.3       9 UNK        -0.1959 
     57 C          34.9914   30.9902    5.1451 C.2       9 UNK         0.5033 
     58 O          34.7889   30.9751    6.3629 O.2       9 UNK        -0.5390 
     59 N          36.1884   30.7831    4.5804 N.am      10 UNK        -0.4215 
     60 CA         37.4550   30.5567    5.2887 C.3       10 UNK         0.0240 
     61 CB         38.6058   30.6175    4.2688 C.3       10 UNK        -0.1982 
     62 C          37.5324   29.2556    6.1162 C.2       10 UNK         0.4970 
     63 O          38.5176   29.0693    6.8321 O.2       10 UNK        -0.4916 
     64 N          36.5180   28.3860    6.0148 N.am      11 UNK        -0.4279 
     65 CA         36.3670   27.1542    6.8059 C.3       11 UNK         0.1003 
     66 C          36.2576   27.3814    8.3433 C.2       11 UNK         0.5709 
     67 N          35.8362   28.5525    8.8089 N.am      11 UNK        -0.7358 
     68 O          36.5581   26.4788    9.1210 O.2       11 UNK        -0.4999 
     69 C69        35.1652   26.2996    6.3238 C.3       12 UNK        -0.0954 
     70 S70        35.1655   25.9402    4.5352 S.3       12 UNK        -0.2268 
     71 C71        33.3725   25.8436    4.2559 C.3       12 UNK         0.0203 
     72 H72        29.1999   27.2079    4.4070 H         1 UNK         0.0888 
     73 H73        30.4798   26.7224    3.3083 H         1 UNK         0.0888 
     74 H74        30.4407   26.0767    4.9589 H         1 UNK         0.0888 
     75 H75        30.1573   24.8453    2.0389 H         1 UNK         0.3017 
     76 H76        28.1153   22.8661    2.6029 H         1 UNK         0.0873 
     77 H77        28.6668   22.0395    0.2867 H         1 UNK         0.0745 
     78 H78        29.7716   23.3698    0.0734 H         1 UNK         0.0745 
     79 H79        32.9666   21.6922    1.1926 H         1 UNK         0.0705 
     80 H80        32.0611   22.1671   -0.2223 H         1 UNK         0.0705 
     81 H81        32.8559   23.3588    3.2630 H         1 UNK         0.1334 
     82 H82        33.1247   27.4714    2.0845 H         1 UNK         0.1417 
     83 H83        32.0639   24.4842   -0.7998 H         1 UNK         0.1562 
     84 H84        33.2706   27.0087   -1.2836 H         1 UNK         0.0748 
     85 H85        32.6565   28.1629   -0.1258 H         1 UNK         0.0748 
     86 H86        30.1798   28.2322    0.6430 H         1 UNK         0.0940 
     87 H87        29.6277   26.5758    0.5556 H         1 UNK         0.0940 
     88 H88        28.4972   28.9235   -1.0518 H         1 UNK         0.0703 
     89 H89        27.7737   26.0452   -1.0680 H         1 UNK         0.3081 
     90 H90        25.7678   26.4927   -4.0206 H         1 UNK         0.0719 
     91 H91        28.4116   25.0221   -3.5040 H         1 UNK         0.0809 
     92 H92        27.2706   24.6780   -4.8033 H         1 UNK         0.0809 
     93 H93        28.1351   26.2068   -4.7745 H         1 UNK         0.0809 
     94 H94        26.3085   24.9068   -1.5698 H         1 UNK         0.2990 
     95 H95        23.1150   23.4826   -1.7795 H         1 UNK         0.0690 
     96 H96        24.1816   21.2745   -1.3593 H         1 UNK         0.0788 
     97 H97        25.7162   21.8668   -1.9990 H         1 UNK         0.0788 
     98 H98        24.3211   21.7014   -3.0561 H         1 UNK         0.0788 
     99 H99        25.2860   23.1394    0.0701 H         1 UNK         0.2993 
    100 H100       25.3238   26.2148    1.5581 H         1 UNK         0.0949 
    101 H101       23.1252   25.6799    2.6314 H         1 UNK         0.0767 
    102 H102       23.6738   24.0382    2.9443 H         1 UNK         0.0767 
    103 H103       24.4657   25.4063    3.7292 H         1 UNK         0.0767 
    104 H104       26.2533   24.0488    2.8838 H         1 UNK         0.3013 
    105 H105       26.0609   29.1321   -0.6143 H         1 UNK         0.3121 
    106 H106       25.1997   28.6315    2.1603 H         1 UNK         0.0774 
    107 H107       23.7983   30.0307   -0.1792 H         1 UNK         0.0815 
    108 H108       23.0664   29.6111    1.3639 H         1 UNK         0.0815 
    109 H109       23.5958   28.3404    0.2769 H         1 UNK         0.0815 
    110 H110       27.3823   29.9874    2.5756 H         1 UNK         0.2987 
    111 H111       26.6599   32.5386    3.6676 H         1 UNK         0.0949 
    112 H112       28.5941   32.4828    1.2632 H         1 UNK         0.0806 
    113 H113       27.0121   33.2592    1.2680 H         1 UNK         0.0806 
    114 H114       28.2954   33.8816    2.2834 H         1 UNK         0.0806 
    115 H115       28.7922   33.5681    4.5283 H         1 UNK         0.3010 
    116 H116       30.3257   31.6352    6.0380 H         1 UNK         0.0829 
    117 H117       29.7836   33.9044    6.9385 H         1 UNK         0.0813 
    118 H118       31.5222   33.6831    6.8424 H         1 UNK         0.0813 
    119 H119       30.7007   34.6603    5.6344 H         1 UNK         0.0813 
    120 H120       32.6332   31.2799    5.8915 H         1 UNK         0.3038 
    121 H121       34.1032   32.0320    3.5077 H         1 UNK         0.0769 
    122 H122       33.2664   29.1064    3.9847 H         1 UNK         0.0811 
    123 H123       34.4024   29.6435    2.7524 H         1 UNK         0.0811 
    124 H124       32.7157   30.1078    2.6458 H         1 UNK         0.0811 
    125 H125       36.2475   30.8021    3.5720 H         1 UNK         0.3204 
    126 H126       37.5840   31.3800    5.9945 H         1 UNK         0.0748 
    127 H127       39.5740   30.5081    4.7598 H         1 UNK         0.0771 
    128 H128       38.5271   29.8236    3.5248 H         1 UNK         0.0771 
    129 H129       38.6220   31.5724    3.7428 H         1 UNK         0.0771 
    130 H130       35.7529   28.6102    5.3989 H         1 UNK         0.2980 
    131 H131       37.2741   26.5687    6.6450 H         1 UNK         0.0545 
    132 H132       35.7690   28.6937    9.8043 H         1 UNK         0.3459 
    133 H133       35.5788   29.2934    8.1732 H         1 UNK         0.3459 
    134 H134       35.1451   25.3428    6.8492 H         1 UNK         0.0616 
    135 H135       34.2314   26.8050    6.5787 H         1 UNK         0.0616 
    136 H136       32.9429   25.1180    4.9486 H         1 UNK         0.0634 
    137 H137       32.9165   26.8040    4.4978 H         1 UNK         0.0634 
@<TRIPOS>BOND
     1    1    2 1    
     2    1   72 1    
     3    1   73 1    
     4    1   74 1    
     5    2    3 2    
     6    2    4 am   BACKBONE|DICT|INTERRES
     7    4    5 1    
     8    4   75 1    
     9    5    6 1    
    10    5   35 1    
    11    5   76 1    
    12    6    7 1    
    13    6   77 1    
    14    6   78 1    
    15    7    8 1    
    16    8    9 1    
    17    8   79 1    
    18    8   80 1    
    19    9   10 ar   
    20    9   14 ar   
    21   10   11 ar   
    22   10   81 1    
    23   11   12 ar   
    24   11   71 1    
    25   12   13 ar   
    26   12   82 1    
    27   13   14 ar   
    28   13   15 1    
    29   14   83 1    
    30   15   16 1    
    31   15   84 1    
    32   15   85 1    
    33   16   17 1    
    34   17   18 1    
    35   17   86 1    
    36   17   87 1    
    37   18   19 1    
    38   18   37 1    
    39   18   88 1    
    40   19   20 am   BACKBONE|DICT|INTERRES
    41   19   89 1    
    42   20   21 2    
    43   20   22 1    
    44   22   23 1    
    45   22   24 1    
    46   22   90 1    
    47   23   91 1    
    48   23   92 1    
    49   23   93 1    
    50   24   25 am   BACKBONE|DICT|INTERRES
    51   24   94 1    
    52   25   26 2    
    53   25   27 1    
    54   27   28 1    
    55   27   29 1    
    56   27   95 1    
    57   28   96 1    
    58   28   97 1    
    59   28   98 1    
    60   29   30 am   BACKBONE|DICT|INTERRES
    61   29   99 1    
    62   30   31 2    
    63   30   32 1    
    64   32   33 1    
    65   32   34 1    
    66   32  100 1    
    67   33  101 1    
    68   33  102 1    
    69   33  103 1    
    70   34   35 am   BACKBONE|DICT|INTERRES
    71   34  104 1    
    72   35   36 2    
    73   37   38 2    
    74   37   39 am   BACKBONE|DICT|INTERRES
    75   39   40 1    
    76   39  105 1    
    77   40   41 1    
    78   40   42 1    
    79   40  106 1    
    80   41  107 1    
    81   41  108 1    
    82   41  109 1    
    83   42   43 2    
    84   42   44 am   BACKBONE|DICT|INTERRES
    85   44   45 1    
    86   44  110 1    
    87   45   46 1    
    88   45   47 1    
    89   45  111 1    
    90   46  112 1    
    91   46  113 1    
    92   46  114 1    
    93   47   48 2    
    94   47   49 am   BACKBONE|DICT|INTERRES
    95   49   50 1    
    96   49  115 1    
    97   50   51 1    
    98   50   52 1    
    99   50  116 1    
   100   51  117 1    
   101   51  118 1    
   102   51  119 1    
   103   52   53 2    
   104   52   54 am   BACKBONE|DICT|INTERRES
   105   54   55 1    
   106   54  120 1    
   107   55   56 1    
   108   55   57 1    
   109   55  121 1    
   110   56  122 1    
   111   56  123 1    
   112   56  124 1    
   113   57   58 2    
   114   57   59 am   BACKBONE|DICT|INTERRES
   115   59   60 1    
   116   59  125 1    
   117   60   61 1    
   118   60   62 1    
   119   60  126 1    
   120   61  127 1    
   121   61  128 1    
   122   61  129 1    
   123   62   63 2    
   124   62   64 am   BACKBONE|DICT|INTERRES
   125   64   65 1    
   126   64  130 1    
   127   65   66 1    
   128   65   69 1    
   129   65  131 1    
   130   66   67 am   BACKBONE|DICT|INTERRES
   131   66   68 2    
   132   67  132 1    
   133   67  133 1    
   134   69   70 1    
   135   69  134 1    
   136   69  135 1    
   137   70   71 1    
   138   71  136 1    
   139   71  137 1    
@<TRIPOS>SUBSTRUCTURE
     1 UNK         1 GROUP             0       ****    0 ROOT    
