@<TRIPOS>MOLECULE
3R136
137   139    1
SMALL
USER_CHARGES


@<TRIPOS>ATOM
      1 CA         32.5946   27.5777   -1.7184 C.3       0 UNK        -0.1979 
      2 C          32.0012   26.2696   -1.2231 C.2       0 UNK         0.4864 
      3 O          31.6971   25.3939   -2.0351 O.2       0 UNK        -0.5359 
      4 N          31.8352   26.1340    0.1017 N.am      1 UNK        -0.4318 
      5 CA         31.2762   24.9613    0.7865 C.3       1 UNK         0.0824 
      6 C6         32.2506   23.7411    0.7276 C.3       12 UNK        -0.0944 
      7 S7         31.7293   22.1935    1.5535 S.3       12 UNK        -0.2672 
      8 C8         31.9399   22.5780    3.3201 C.3       12 UNK         0.0333 
      9 C9         30.8391   23.4744    3.8780 C.ar      12 UNK        -0.0807 
     10 C10        31.1844   24.5839    4.6526 C.ar      12 UNK        -0.0894 
     11 C11        30.1959   25.4017    5.2054 C.ar      12 UNK        -0.0804 
     12 C12        28.8493   25.1047    4.9838 C.ar      12 UNK        -0.0824 
     13 C13        28.4860   24.0063    4.1987 C.ar      12 UNK        -0.0762 
     14 C14        29.4852   23.1899    3.6562 C.ar      12 UNK        -0.0782 
     15 C15        27.0161   23.6823    3.9635 C.3       12 UNK         0.0230 
     16 S16        26.3289   24.5749    2.5296 S.3       12 UNK        -0.2608 
     17 C17        26.0593   26.2545    3.1946 C.3       12 UNK        -0.0989 
     18 CA         27.1301   27.2652    2.6929 C.3       5 UNK         0.0716 
     19 N          27.1601   27.4041    1.2315 N.am      5 UNK        -0.4135 
     20 C          26.2563   28.0242    0.4599 C.2       4 UNK         0.5031 
     21 O          25.1764   28.4516    0.8722 O.2       4 UNK        -0.5229 
     22 CA         26.6182   28.2407   -1.0166 C.3       4 UNK         0.0329 
     23 CB         27.5130   29.4841   -1.1765 C.3       4 UNK        -0.2001 
     24 N          27.2619   27.0813   -1.6424 N.am      4 UNK        -0.4303 
     25 C          27.1272   26.7680   -2.9412 C.2       3 UNK         0.5044 
     26 O          26.4266   27.4103   -3.7255 O.2       3 UNK        -0.5152 
     27 CA         27.9050   25.5536   -3.4886 C.3       3 UNK         0.0319 
     28 CB         29.1228   26.0238   -4.3005 C.3       3 UNK        -0.2001 
     29 N          28.3537   24.6210   -2.4552 N.am      3 UNK        -0.4354 
     30 C          27.5424   23.8417   -1.7260 C.2       2 UNK         0.4964 
     31 O          26.3314   23.7466   -1.9278 O.2       2 UNK        -0.5047 
     32 CA         28.1682   23.0462   -0.5642 C.3       2 UNK         0.0288 
     33 CB         28.2574   21.5531   -0.9193 C.3       2 UNK        -0.2113 
     34 N          29.4897   23.5015   -0.1187 N.am      2 UNK        -0.4145 
     35 C          29.8255   24.7279    0.3028 C.2       1 UNK         0.5006 
     36 O          29.0506   25.6863    0.2817 O.2       1 UNK        -0.5103 
     37 C          27.0750   28.6591    3.3653 C.2       5 UNK         0.5055 
     38 O          27.7498   29.5730    2.8868 O.2       5 UNK        -0.5220 
     39 N          26.3010   28.8088    4.4537 N.am      6 UNK        -0.4450 
     40 CA         25.9238   30.0725    5.1120 C.3       6 UNK         0.0367 
     41 CB         24.9008   30.8216    4.2312 C.3       6 UNK        -0.1929 
     42 C          27.0969   30.9871    5.5317 C.2       6 UNK         0.5070 
     43 O          26.9214   32.2044    5.6030 O.2       6 UNK        -0.5237 
     44 N          28.2715   30.3899    5.7842 N.am      7 UNK        -0.4739 
     45 CA         29.5573   31.0453    6.0629 C.3       7 UNK         0.0276 
     46 CB         29.5074   31.8232    7.3960 C.3       7 UNK        -0.1927 
     47 C          30.0950   31.9008    4.8919 C.2       7 UNK         0.5013 
     48 O          30.9005   32.8023    5.1309 O.2       7 UNK        -0.5193 
     49 N          29.6438   31.6277    3.6565 N.am      8 UNK        -0.4253 
     50 CA         29.9629   32.4208    2.4667 C.3       8 UNK         0.0242 
     51 CB         28.9784   32.0858    1.3340 C.3       8 UNK        -0.2000 
     52 C          31.4131   32.2555    1.9884 C.2       8 UNK         0.4948 
     53 O          32.0720   33.2619    1.7214 O.2       8 UNK        -0.5275 
     54 N          31.8828   31.0064    1.8757 N.am      9 UNK        -0.4246 
     55 CA         33.2164   30.6595    1.3884 C.3       9 UNK         0.0261 
     56 CB         33.3121   30.8807   -0.1343 C.3       9 UNK        -0.1959 
     57 C          33.5251   29.2024    1.7423 C.2       9 UNK         0.5033 
     58 O          32.6148   28.3698    1.7296 O.2       9 UNK        -0.5390 
     59 N          34.8093   28.9292    2.0181 N.am      10 UNK        -0.4215 
     60 CA         35.3800   27.6405    2.4427 C.3       10 UNK         0.0240 
     61 CB         35.2885   26.5906    1.3163 C.3       10 UNK        -0.1982 
     62 C          34.8152   27.1330    3.7870 C.2       10 UNK         0.4970 
     63 O          34.7068   25.9227    3.9927 O.2       10 UNK        -0.4916 
     64 N          34.4842   28.0778    4.6750 N.am      11 UNK        -0.4279 
     65 CA         33.9193   27.8458    6.0133 C.3       11 UNK         0.1003 
     66 C          34.9043   28.2016    7.1643 C.2       11 UNK         0.5709 
     67 N          36.1457   28.5852    6.8878 N.am      11 UNK        -0.7358 
     68 O          34.5446   28.1088    8.3355 O.2       11 UNK        -0.4999 
     69 C69        32.5565   28.5732    6.1735 C.3       12 UNK        -0.0954 
     70 S70        31.2977   27.9169    5.0283 S.3       12 UNK        -0.2268 
     71 C71        30.5970   26.5924    6.0566 C.3       12 UNK         0.0203 
     72 H72        31.8056   28.3135   -1.8701 H         1 UNK         0.0888 
     73 H73        33.3162   27.9756   -1.0066 H         1 UNK         0.0888 
     74 H74        33.1101   27.4281   -2.6667 H         1 UNK         0.0888 
     75 H75        32.0680   26.9184    0.7110 H         1 UNK         0.3017 
     76 H76        31.1853   25.2618    1.8301 H         1 UNK         0.0873 
     77 H77        32.4638   23.4858   -0.3115 H         1 UNK         0.0745 
     78 H78        33.2120   24.0310    1.1540 H         1 UNK         0.0745 
     79 H79        31.9368   21.6425    3.8809 H         1 UNK         0.0705 
     80 H80        32.9251   23.0233    3.4702 H         1 UNK         0.0705 
     81 H81        32.2264   24.8167    4.8298 H         1 UNK         0.1334 
     82 H82        28.0848   25.7287    5.4239 H         1 UNK         0.1417 
     83 H83        29.2090   22.3300    3.0608 H         1 UNK         0.1562 
     84 H84        26.4290   23.9011    4.8567 H         1 UNK         0.0748 
     85 H85        26.9003   22.6116    3.7881 H         1 UNK         0.0748 
     86 H86        26.0460   26.1883    4.2824 H         1 UNK         0.0940 
     87 H87        25.0600   26.5800    2.8996 H         1 UNK         0.0940 
     88 H88        28.1104   26.8675    2.9573 H         1 UNK         0.0703 
     89 H89        27.9945   27.0124    0.8018 H         1 UNK         0.3081 
     90 H90        25.6734   28.4379   -1.5282 H         1 UNK         0.0719 
     91 H91        28.4999   29.3261   -0.7399 H         1 UNK         0.0809 
     92 H92        27.6490   29.7436   -2.2265 H         1 UNK         0.0809 
     93 H93        27.0715   30.3514   -0.6834 H         1 UNK         0.0809 
     94 H94        27.8406   26.4916   -1.0514 H         1 UNK         0.2990 
     95 H95        27.2353   25.0133   -4.1610 H         1 UNK         0.0690 
     96 H96        29.6651   25.1815   -4.7306 H         1 UNK         0.0788 
     97 H97        29.8207   26.5935   -3.6857 H         1 UNK         0.0788 
     98 H98        28.8169   26.6676   -5.1263 H         1 UNK         0.0788 
     99 H99        29.3379   24.6457   -2.2197 H         1 UNK         0.2993 
    100 H100       27.4922   23.1522    0.2847 H         1 UNK         0.0949 
    101 H101       28.9497   21.3768   -1.7436 H         1 UNK         0.0767 
    102 H102       28.5912   20.9614   -0.0664 H         1 UNK         0.0767 
    103 H103       27.2842   21.1622   -1.2203 H         1 UNK         0.0767 
    104 H104       30.2059   22.7899   -0.0489 H         1 UNK         0.3013 
    105 H105       25.8177   27.9928    4.8010 H         1 UNK         0.3121 
    106 H106       25.4199   29.7951    6.0391 H         1 UNK         0.0774 
    107 H107       25.3547   31.1747    3.3042 H         1 UNK         0.0815 
    108 H108       24.4929   31.6913    4.7478 H         1 UNK         0.0815 
    109 H109       24.0588   30.1817    3.9673 H         1 UNK         0.0815 
    110 H110       28.3094   29.3861    5.6775 H         1 UNK         0.2987 
    111 H111       30.2790   30.2450    6.2011 H         1 UNK         0.0949 
    112 H112       28.8752   32.7088    7.3273 H         1 UNK         0.0806 
    113 H113       29.1277   31.2004    8.2058 H         1 UNK         0.0806 
    114 H114       30.5025   32.1598    7.6895 H         1 UNK         0.0806 
    115 H115       28.9759   30.8698    3.5289 H         1 UNK         0.3010 
    116 H116       29.8213   33.4725    2.7256 H         1 UNK         0.0829 
    117 H117       27.9466   32.2586    1.6408 H         1 UNK         0.0813 
    118 H118       29.1658   32.7052    0.4560 H         1 UNK         0.0813 
    119 H119       29.0626   31.0443    1.0225 H         1 UNK         0.0813 
    120 H120       31.3044   30.2166    2.1362 H         1 UNK         0.3038 
    121 H121       33.9447   31.2991    1.8918 H         1 UNK         0.0769 
    122 H122       32.5113   30.3650   -0.6639 H         1 UNK         0.0811 
    123 H123       34.2603   30.5150   -0.5308 H         1 UNK         0.0811 
    124 H124       33.2475   31.9386   -0.3886 H         1 UNK         0.0811 
    125 H125       35.4719   29.6918    1.9671 H         1 UNK         0.3204 
    126 H126       36.4399   27.8277    2.6210 H         1 UNK         0.0748 
    127 H127       34.2645   26.2583    1.1637 H         1 UNK         0.0771 
    128 H128       35.6620   26.9829    0.3706 H         1 UNK         0.0771 
    129 H129       35.8798   25.7065    1.5576 H         1 UNK         0.0771 
    130 H130       34.6175   29.0446    4.4211 H         1 UNK         0.2980 
    131 H131       33.7330   26.7784    6.1420 H         1 UNK         0.0545 
    132 H132       36.7721   28.8043    7.6465 H         1 UNK         0.3459 
    133 H133       36.4703   28.6371    5.9362 H         1 UNK         0.3459 
    134 H134       32.1744   28.4895    7.1927 H         1 UNK         0.0616 
    135 H135       32.6738   29.6411    5.9819 H         1 UNK         0.0616 
    136 H136       31.3273   26.2600    6.7957 H         1 UNK         0.0634 
    137 H137       29.7471   26.9854    6.6165 H         1 UNK         0.0634 
@<TRIPOS>BOND
     1    1    2 1    
     2    1   72 1    
     3    1   73 1    
     4    1   74 1    
     5    2    3 2    
     6    2    4 am   BACKBONE|DICT|INTERRES
     7    4    5 1    
     8    4   75 1    
     9    5    6 1    
    10    5   35 1    
    11    5   76 1    
    12    6    7 1    
    13    6   77 1    
    14    6   78 1    
    15    7    8 1    
    16    8    9 1    
    17    8   79 1    
    18    8   80 1    
    19    9   10 ar   
    20    9   14 ar   
    21   10   11 ar   
    22   10   81 1    
    23   11   12 ar   
    24   11   71 1    
    25   12   13 ar   
    26   12   82 1    
    27   13   14 ar   
    28   13   15 1    
    29   14   83 1    
    30   15   16 1    
    31   15   84 1    
    32   15   85 1    
    33   16   17 1    
    34   17   18 1    
    35   17   86 1    
    36   17   87 1    
    37   18   19 1    
    38   18   37 1    
    39   18   88 1    
    40   19   20 am   BACKBONE|DICT|INTERRES
    41   19   89 1    
    42   20   21 2    
    43   20   22 1    
    44   22   23 1    
    45   22   24 1    
    46   22   90 1    
    47   23   91 1    
    48   23   92 1    
    49   23   93 1    
    50   24   25 am   BACKBONE|DICT|INTERRES
    51   24   94 1    
    52   25   26 2    
    53   25   27 1    
    54   27   28 1    
    55   27   29 1    
    56   27   95 1    
    57   28   96 1    
    58   28   97 1    
    59   28   98 1    
    60   29   30 am   BACKBONE|DICT|INTERRES
    61   29   99 1    
    62   30   31 2    
    63   30   32 1    
    64   32   33 1    
    65   32   34 1    
    66   32  100 1    
    67   33  101 1    
    68   33  102 1    
    69   33  103 1    
    70   34   35 am   BACKBONE|DICT|INTERRES
    71   34  104 1    
    72   35   36 2    
    73   37   38 2    
    74   37   39 am   BACKBONE|DICT|INTERRES
    75   39   40 1    
    76   39  105 1    
    77   40   41 1    
    78   40   42 1    
    79   40  106 1    
    80   41  107 1    
    81   41  108 1    
    82   41  109 1    
    83   42   43 2    
    84   42   44 am   BACKBONE|DICT|INTERRES
    85   44   45 1    
    86   44  110 1    
    87   45   46 1    
    88   45   47 1    
    89   45  111 1    
    90   46  112 1    
    91   46  113 1    
    92   46  114 1    
    93   47   48 2    
    94   47   49 am   BACKBONE|DICT|INTERRES
    95   49   50 1    
    96   49  115 1    
    97   50   51 1    
    98   50   52 1    
    99   50  116 1    
   100   51  117 1    
   101   51  118 1    
   102   51  119 1    
   103   52   53 2    
   104   52   54 am   BACKBONE|DICT|INTERRES
   105   54   55 1    
   106   54  120 1    
   107   55   56 1    
   108   55   57 1    
   109   55  121 1    
   110   56  122 1    
   111   56  123 1    
   112   56  124 1    
   113   57   58 2    
   114   57   59 am   BACKBONE|DICT|INTERRES
   115   59   60 1    
   116   59  125 1    
   117   60   61 1    
   118   60   62 1    
   119   60  126 1    
   120   61  127 1    
   121   61  128 1    
   122   61  129 1    
   123   62   63 2    
   124   62   64 am   BACKBONE|DICT|INTERRES
   125   64   65 1    
   126   64  130 1    
   127   65   66 1    
   128   65   69 1    
   129   65  131 1    
   130   66   67 am   BACKBONE|DICT|INTERRES
   131   66   68 2    
   132   67  132 1    
   133   67  133 1    
   134   69   70 1    
   135   69  134 1    
   136   69  135 1    
   137   70   71 1    
   138   71  136 1    
   139   71  137 1    
@<TRIPOS>SUBSTRUCTURE
     1 UNK         1 GROUP             0       ****    0 ROOT    
