@<TRIPOS>MOLECULE
3R136
137   139    1
SMALL
USER_CHARGES


@<TRIPOS>ATOM
      1 CA         30.8865   18.9903   -2.9872 C.3       0 UNK        -0.1979 
      2 C          30.4307   20.3684   -2.5303 C.2       0 UNK         0.4864 
      3 O          29.9349   21.1498   -3.3441 O.2       0 UNK        -0.5359 
      4 N          30.6036   20.6747   -1.2386 N.am      1 UNK        -0.4318 
      5 CA         30.1559   21.9169   -0.6023 C.3       1 UNK         0.0824 
      6 C6         30.9122   22.1842    0.7234 C.3       12 UNK        -0.0944 
      7 S7         30.7976   20.8294    1.9456 S.3       12 UNK        -0.2672 
      8 C8         32.1759   21.2444    3.0597 C.3       12 UNK         0.0333 
      9 C9         31.9997   22.6207    3.6846 C.ar      12 UNK        -0.0807 
     10 C10        32.8157   23.6836    3.2915 C.ar      12 UNK        -0.0894 
     11 C11        32.6499   24.9510    3.8557 C.ar      12 UNK        -0.0804 
     12 C12        31.6606   25.1531    4.8236 C.ar      12 UNK        -0.0824 
     13 C13        30.8229   24.0985    5.2143 C.ar      12 UNK        -0.0762 
     14 C14        31.0103   22.8342    4.6471 C.ar      12 UNK        -0.0782 
     15 C15        29.7178   24.2719    6.2556 C.3       12 UNK         0.0230 
     16 S16        28.9381   25.9205    6.3043 S.3       12 UNK        -0.2608 
     17 C17        28.2570   26.1128    4.6179 C.3       12 UNK        -0.0989 
     18 CA         28.6032   27.5025    4.0237 C.3       5 UNK         0.0716 
     19 N          28.5989   27.4895    2.5565 N.am      5 UNK        -0.4135 
     20 C          29.0806   28.4850    1.7947 C.2       4 UNK         0.5031 
     21 O          29.6127   29.4954    2.2544 O.2       4 UNK        -0.5229 
     22 CA         28.8687   28.3910    0.2714 C.3       4 UNK         0.0329 
     23 CB         30.0778   27.7222   -0.3989 C.3       4 UNK        -0.2001 
     24 N          27.6412   27.6887   -0.1159 N.am      4 UNK        -0.4303 
     25 C          26.4056   27.9931    0.3073 C.2       3 UNK         0.5044 
     26 O          26.1521   28.9740    1.0062 O.2       3 UNK        -0.5152 
     27 CA         25.2659   27.0202   -0.0421 C.3       3 UNK         0.0319 
     28 CB         24.4136   27.5940   -1.1848 C.3       3 UNK        -0.2001 
     29 N          25.6736   25.6508   -0.3856 N.am      3 UNK        -0.4354 
     30 C          26.4264   24.8171    0.3497 C.2       2 UNK         0.4964 
     31 O          26.9807   25.1393    1.4037 O.2       2 UNK        -0.5047 
     32 CA         26.6204   23.3931   -0.1944 C.3       2 UNK         0.0288 
     33 CB         25.8671   23.1028   -1.5156 C.3       2 UNK        -0.2113 
     34 N          28.0513   23.1463   -0.3580 N.am      2 UNK        -0.4145 
     35 C          28.6225   21.9372   -0.4135 C.2       1 UNK         0.5006 
     36 O          27.9947   20.8781   -0.3131 O.2       1 UNK        -0.5103 
     37 C          27.7079   28.6189    4.6207 C.2       5 UNK         0.5055 
     38 O          27.9926   29.0958    5.7194 O.2       5 UNK        -0.5220 
     39 N          26.6590   29.0351    3.8975 N.am      6 UNK        -0.4450 
     40 CA         25.8004   30.1563    4.2794 C.3       6 UNK         0.0367 
     41 CB         24.3517   29.8649    3.8525 C.3       6 UNK        -0.1929 
     42 C          26.2962   31.4695    3.6560 C.2       6 UNK         0.5070 
     43 O          26.3249   32.4914    4.3417 O.2       6 UNK        -0.5237 
     44 N          26.6523   31.4262    2.3646 N.am      7 UNK        -0.4739 
     45 CA         27.0089   32.5993    1.5650 C.3       7 UNK         0.0276 
     46 CB         26.9232   32.2404    0.0727 C.3       7 UNK        -0.1927 
     47 C          28.3861   33.1958    1.8981 C.2       7 UNK         0.5013 
     48 O          28.5160   34.4209    1.8994 O.2       7 UNK        -0.5193 
     49 N          29.3837   32.3370    2.1453 N.am      8 UNK        -0.4253 
     50 CA         30.7766   32.7286    2.3827 C.3       8 UNK         0.0242 
     51 CB         31.6549   32.1721    1.2491 C.3       8 UNK        -0.2000 
     52 C          31.2996   32.2520    3.7443 C.2       8 UNK         0.4948 
     53 O          32.1623   32.9211    4.3143 O.2       8 UNK        -0.5275 
     54 N          30.8137   31.0994    4.2291 N.am      9 UNK        -0.4246 
     55 CA         31.1527   30.4127    5.4866 C.3       9 UNK         0.0261 
     56 CB         30.8570   31.2856    6.7215 C.3       9 UNK        -0.1959 
     57 C          32.5760   29.8344    5.5250 C.2       9 UNK         0.5033 
     58 O          32.7406   28.6619    5.8602 O.2       9 UNK        -0.5390 
     59 N          33.5702   30.6477    5.1538 N.am      10 UNK        -0.4215 
     60 CA         34.9633   30.2413    4.9587 C.3       10 UNK         0.0240 
     61 CB         35.8658   31.4773    5.1071 C.3       10 UNK        -0.1982 
     62 C          35.2006   29.5627    3.5960 C.2       10 UNK         0.4970 
     63 O          36.2354   28.9176    3.4268 O.2       10 UNK        -0.4916 
     64 N          34.2600   29.7363    2.6548 N.am      11 UNK        -0.4279 
     65 CA         34.2954   29.2330    1.2692 C.3       11 UNK         0.1003 
     66 C          35.3980   29.8761    0.3713 C.2       11 UNK         0.5709 
     67 N          35.9828   31.0070    0.7493 N.am      11 UNK        -0.7358 
     68 O          35.7066   29.3669   -0.7037 O.2       11 UNK        -0.4999 
     69 C69        34.2734   27.6807    1.1793 C.3       12 UNK        -0.0954 
     70 S70        32.8035   26.9413    1.9685 S.3       12 UNK        -0.2268 
     71 C71        33.5381   26.0965    3.4006 C.3       12 UNK         0.0203 
     72 H72        31.6391   19.0838   -3.7696 H         1 UNK         0.0888 
     73 H73        31.3171   18.4119   -2.1699 H         1 UNK         0.0888 
     74 H74        30.0425   18.4310   -3.3901 H         1 UNK         0.0888 
     75 H75        30.9790   19.9835   -0.6046 H         1 UNK         0.3017 
     76 H76        30.4022   22.7342   -1.2843 H         1 UNK         0.0873 
     77 H77        31.9671   22.3539    0.5011 H         1 UNK         0.0745 
     78 H78        30.5600   23.1066    1.1899 H         1 UNK         0.0745 
     79 H79        32.2340   20.4929    3.8484 H         1 UNK         0.0705 
     80 H80        33.1153   21.1831    2.5079 H         1 UNK         0.0705 
     81 H81        33.5756   23.5291    2.5375 H         1 UNK         0.1334 
     82 H82        31.5405   26.1361    5.2588 H         1 UNK         0.1417 
     83 H83        30.3756   22.0097    4.9436 H         1 UNK         0.1562 
     84 H84        30.1374   24.0603    7.2398 H         1 UNK         0.0748 
     85 H85        28.9292   23.5354    6.0926 H         1 UNK         0.0748 
     86 H86        27.1790   25.9406    4.6360 H         1 UNK         0.0940 
     87 H87        28.6687   25.3252    3.9846 H         1 UNK         0.0940 
     88 H88        29.6318   27.7356    4.3071 H         1 UNK         0.0703 
     89 H89        28.1454   26.6992    2.1087 H         1 UNK         0.3081 
     90 H90        28.7929   29.4104   -0.1091 H         1 UNK         0.0719 
     91 H91        30.2135   26.6948   -0.0585 H         1 UNK         0.0809 
     92 H92        29.9762   27.7089   -1.4842 H         1 UNK         0.0809 
     93 H93        30.9963   28.2647   -0.1699 H         1 UNK         0.0809 
     94 H94        27.7491   26.8699   -0.6951 H         1 UNK         0.2990 
     95 H95        24.6363   26.9486    0.8469 H         1 UNK         0.0690 
     96 H96        23.5257   26.9871   -1.3629 H         1 UNK         0.0788 
     97 H97        24.9757   27.6515   -2.1178 H         1 UNK         0.0788 
     98 H98        24.0698   28.6026   -0.9489 H         1 UNK         0.0788 
     99 H99        25.2893   25.2828   -1.2443 H         1 UNK         0.2993 
    100 H100       26.2372   22.7203    0.5760 H         1 UNK         0.0949 
    101 H101       25.9829   22.0606   -1.8138 H         1 UNK         0.0767 
    102 H102       24.7950   23.2757   -1.4111 H         1 UNK         0.0767 
    103 H103       26.2330   23.7177   -2.3390 H         1 UNK         0.0767 
    104 H104       28.6351   23.9706   -0.3822 H         1 UNK         0.3013 
    105 H105       26.5100   28.6526    2.9708 H         1 UNK         0.3121 
    106 H106       25.8047   30.2784    5.3649 H         1 UNK         0.0774 
    107 H107       24.2585   29.7415    2.7730 H         1 UNK         0.0815 
    108 H108       23.6897   30.6814    4.1442 H         1 UNK         0.0815 
    109 H109       23.9751   28.9584    4.3263 H         1 UNK         0.0815 
    110 H110       26.5517   30.5459    1.8636 H         1 UNK         0.2987 
    111 H111       26.2651   33.3744    1.7636 H         1 UNK         0.0949 
    112 H112       27.6362   31.4623   -0.1983 H         1 UNK         0.0806 
    113 H113       25.9268   31.8873   -0.1939 H         1 UNK         0.0806 
    114 H114       27.1367   33.1097   -0.5508 H         1 UNK         0.0806 
    115 H115       29.1911   31.3396    2.1306 H         1 UNK         0.3010 
    116 H116       30.8743   33.8163    2.3780 H         1 UNK         0.0829 
    117 H117       31.5666   31.0888    1.1667 H         1 UNK         0.0813 
    118 H118       31.3709   32.6005    0.2878 H         1 UNK         0.0813 
    119 H119       32.7074   32.4101    1.4095 H         1 UNK         0.0813 
    120 H120       30.2049   30.5651    3.6127 H         1 UNK         0.3038 
    121 H121       30.4878   29.5532    5.5388 H         1 UNK         0.0769 
    122 H122       31.0239   30.7231    7.6410 H         1 UNK         0.0811 
    123 H123       31.4910   32.1713    6.7649 H         1 UNK         0.0811 
    124 H124       29.8177   31.6144    6.7286 H         1 UNK         0.0811 
    125 H125       33.3156   31.6039    4.9094 H         1 UNK         0.3204 
    126 H126       35.2344   29.5225    5.7351 H         1 UNK         0.0748 
    127 H127       36.9171   31.2123    4.9853 H         1 UNK         0.0771 
    128 H128       35.6324   32.2412    4.3642 H         1 UNK         0.0771 
    129 H129       35.7597   31.9276    6.0944 H         1 UNK         0.0771 
    130 H130       33.4449   30.2750    2.8998 H         1 UNK         0.2980 
    131 H131       33.3651   29.5793    0.8199 H         1 UNK         0.0545 
    132 H132       36.6846   31.4192    0.1550 H         1 UNK         0.3459 
    133 H133       35.7398   31.4455    1.6219 H         1 UNK         0.3459 
    134 H134       34.2507   27.3619    0.1359 H         1 UNK         0.0616 
    135 H135       35.1870   27.2569    1.5971 H         1 UNK         0.0616 
    136 H136       33.6905   26.8132    4.2076 H         1 UNK         0.0634 
    137 H137       34.5243   25.7082    3.1428 H         1 UNK         0.0634 
@<TRIPOS>BOND
     1    1    2 1    
     2    1   72 1    
     3    1   73 1    
     4    1   74 1    
     5    2    3 2    
     6    2    4 am   BACKBONE|DICT|INTERRES
     7    4    5 1    
     8    4   75 1    
     9    5    6 1    
    10    5   35 1    
    11    5   76 1    
    12    6    7 1    
    13    6   77 1    
    14    6   78 1    
    15    7    8 1    
    16    8    9 1    
    17    8   79 1    
    18    8   80 1    
    19    9   10 ar   
    20    9   14 ar   
    21   10   11 ar   
    22   10   81 1    
    23   11   12 ar   
    24   11   71 1    
    25   12   13 ar   
    26   12   82 1    
    27   13   14 ar   
    28   13   15 1    
    29   14   83 1    
    30   15   16 1    
    31   15   84 1    
    32   15   85 1    
    33   16   17 1    
    34   17   18 1    
    35   17   86 1    
    36   17   87 1    
    37   18   19 1    
    38   18   37 1    
    39   18   88 1    
    40   19   20 am   BACKBONE|DICT|INTERRES
    41   19   89 1    
    42   20   21 2    
    43   20   22 1    
    44   22   23 1    
    45   22   24 1    
    46   22   90 1    
    47   23   91 1    
    48   23   92 1    
    49   23   93 1    
    50   24   25 am   BACKBONE|DICT|INTERRES
    51   24   94 1    
    52   25   26 2    
    53   25   27 1    
    54   27   28 1    
    55   27   29 1    
    56   27   95 1    
    57   28   96 1    
    58   28   97 1    
    59   28   98 1    
    60   29   30 am   BACKBONE|DICT|INTERRES
    61   29   99 1    
    62   30   31 2    
    63   30   32 1    
    64   32   33 1    
    65   32   34 1    
    66   32  100 1    
    67   33  101 1    
    68   33  102 1    
    69   33  103 1    
    70   34   35 am   BACKBONE|DICT|INTERRES
    71   34  104 1    
    72   35   36 2    
    73   37   38 2    
    74   37   39 am   BACKBONE|DICT|INTERRES
    75   39   40 1    
    76   39  105 1    
    77   40   41 1    
    78   40   42 1    
    79   40  106 1    
    80   41  107 1    
    81   41  108 1    
    82   41  109 1    
    83   42   43 2    
    84   42   44 am   BACKBONE|DICT|INTERRES
    85   44   45 1    
    86   44  110 1    
    87   45   46 1    
    88   45   47 1    
    89   45  111 1    
    90   46  112 1    
    91   46  113 1    
    92   46  114 1    
    93   47   48 2    
    94   47   49 am   BACKBONE|DICT|INTERRES
    95   49   50 1    
    96   49  115 1    
    97   50   51 1    
    98   50   52 1    
    99   50  116 1    
   100   51  117 1    
   101   51  118 1    
   102   51  119 1    
   103   52   53 2    
   104   52   54 am   BACKBONE|DICT|INTERRES
   105   54   55 1    
   106   54  120 1    
   107   55   56 1    
   108   55   57 1    
   109   55  121 1    
   110   56  122 1    
   111   56  123 1    
   112   56  124 1    
   113   57   58 2    
   114   57   59 am   BACKBONE|DICT|INTERRES
   115   59   60 1    
   116   59  125 1    
   117   60   61 1    
   118   60   62 1    
   119   60  126 1    
   120   61  127 1    
   121   61  128 1    
   122   61  129 1    
   123   62   63 2    
   124   62   64 am   BACKBONE|DICT|INTERRES
   125   64   65 1    
   126   64  130 1    
   127   65   66 1    
   128   65   69 1    
   129   65  131 1    
   130   66   67 am   BACKBONE|DICT|INTERRES
   131   66   68 2    
   132   67  132 1    
   133   67  133 1    
   134   69   70 1    
   135   69  134 1    
   136   69  135 1    
   137   70   71 1    
   138   71  136 1    
   139   71  137 1    
@<TRIPOS>SUBSTRUCTURE
     1 UNK         1 GROUP             0       ****    0 ROOT    
