@<TRIPOS>MOLECULE
3R136
137   139    1
SMALL
USER_CHARGES


@<TRIPOS>ATOM
      1 CA         34.3736   26.6156   -0.7071 C.3       0 UNK        -0.1979 
      2 C          32.9760   27.1770   -0.4900 C.2       0 UNK         0.4864 
      3 O          32.7910   28.3939   -0.5335 O.2       0 UNK        -0.5359 
      4 N          31.9945   26.2986   -0.2531 N.am      1 UNK        -0.4318 
      5 CA         30.5795   26.6489   -0.1215 C.3       1 UNK         0.0824 
      6 C6         29.8135   25.6436    0.7796 C.3       12 UNK        -0.0944 
      7 S7         29.8170   23.9126    0.1960 S.3       12 UNK        -0.2672 
      8 C8         31.1809   23.1726    1.1557 C.3       12 UNK         0.0333 
      9 C9         30.8962   23.1199    2.6507 C.ar      12 UNK        -0.0807 
     10 C10        31.7348   23.7818    3.5554 C.ar      12 UNK        -0.0894 
     11 C11        31.4990   23.6956    4.9312 C.ar      12 UNK        -0.0804 
     12 C12        30.3992   22.9690    5.3962 C.ar      12 UNK        -0.0824 
     13 C13        29.5477   22.3130    4.5029 C.ar      12 UNK        -0.0762 
     14 C14        29.8140   22.3766    3.1319 C.ar      12 UNK        -0.0782 
     15 C15        28.3571   21.5207    5.0304 C.3       12 UNK         0.0230 
     16 S16        26.7710   22.0176    4.2794 S.3       12 UNK        -0.2608 
     17 C17        26.7174   23.8143    4.6139 C.3       12 UNK        -0.0989 
     18 CA         26.8053   24.6551    3.3067 C.3       5 UNK         0.0716 
     19 N          25.7760   24.3097    2.3166 N.am      5 UNK        -0.4135 
     20 C          24.4472   24.4133    2.4644 C.2       4 UNK         0.5031 
     21 O          23.9001   24.7968    3.5000 O.2       4 UNK        -0.5229 
     22 CA         23.5871   24.0505    1.2316 C.3       4 UNK         0.0329 
     23 CB         22.1989   24.7248    1.2728 C.3       4 UNK        -0.2001 
     24 N          24.2282   24.3144   -0.0688 N.am      4 UNK        -0.4303 
     25 C          24.7643   25.4738   -0.4765 C.2       3 UNK         0.5044 
     26 O          24.8802   26.4701    0.2414 O.2       3 UNK        -0.5152 
     27 CA         25.2558   25.5356   -1.9254 C.3       3 UNK         0.0319 
     28 CB         24.0856   25.8689   -2.8723 C.3       3 UNK        -0.2001 
     29 N          26.2877   26.5650   -1.9881 N.am      3 UNK        -0.4354 
     30 C          27.0949   26.8400   -3.0174 C.2       2 UNK         0.4964 
     31 O          27.0702   26.2509   -4.0984 O.2       2 UNK        -0.5047 
     32 CA         28.1233   27.9535   -2.7777 C.3       2 UNK         0.0288 
     33 CB         27.4415   29.3276   -2.6552 C.3       2 UNK        -0.2113 
     34 N          28.9039   27.6859   -1.5705 N.am      2 UNK        -0.4145 
     35 C          29.9339   26.8340   -1.5099 C.2       1 UNK         0.5006 
     36 O          30.3722   26.2167   -2.4856 O.2       1 UNK        -0.5103 
     37 C          26.9117   26.1764    3.5848 C.2       5 UNK         0.5055 
     38 O          27.5764   26.5595    4.5491 O.2       5 UNK        -0.5220 
     39 N          26.2999   27.0286    2.7454 N.am      6 UNK        -0.4450 
     40 CA         26.4551   28.4829    2.7970 C.3       6 UNK         0.0367 
     41 CB         25.2319   29.1611    2.1595 C.3       6 UNK        -0.1929 
     42 C          27.7395   28.8723    2.0559 C.2       6 UNK         0.5070 
     43 O          27.9401   28.4310    0.9219 O.2       6 UNK        -0.5237 
     44 N          28.5847   29.6801    2.6985 N.am      7 UNK        -0.4739 
     45 CA         29.8981   30.0790    2.2007 C.3       7 UNK         0.0276 
     46 CB         30.9535   29.1061    2.7591 C.3       7 UNK        -0.1927 
     47 C          30.2069   31.5124    2.6479 C.2       7 UNK         0.5013 
     48 O          29.5549   32.0295    3.5599 O.2       7 UNK        -0.5193 
     49 N          31.2252   32.1051    2.0205 N.am      8 UNK        -0.4253 
     50 CA         31.8531   33.3612    2.4150 C.3       8 UNK         0.0242 
     51 CB         31.4172   34.4855    1.4610 C.3       8 UNK        -0.2000 
     52 C          33.3658   33.1336    2.3481 C.2       8 UNK         0.4948 
     53 O          33.8230   32.4151    1.4537 O.2       8 UNK        -0.5275 
     54 N          34.1090   33.7167    3.2992 N.am      9 UNK        -0.4246 
     55 CA         35.5536   33.5659    3.5499 C.3       9 UNK         0.0261 
     56 CB         36.4004   34.0554    2.3578 C.3       9 UNK        -0.1959 
     57 C          35.9629   32.1457    3.9899 C.2       9 UNK         0.5033 
     58 O          36.6086   31.9970    5.0286 O.2       9 UNK        -0.5390 
     59 N          35.5592   31.1331    3.2155 N.am      10 UNK        -0.4215 
     60 CA         35.6236   29.7153    3.5638 C.3       10 UNK         0.0240 
     61 CB         35.4622   28.8853    2.2798 C.3       10 UNK        -0.1982 
     62 C          34.5248   29.3502    4.5761 C.2       10 UNK         0.4970 
     63 O          33.5106   30.0472    4.6596 O.2       10 UNK        -0.4916 
     64 N          34.7438   28.2520    5.3093 N.am      11 UNK        -0.4279 
     65 CA         33.8551   27.6565    6.3253 C.3       11 UNK         0.1003 
     66 C          33.6398   28.5130    7.6109 C.2       11 UNK         0.5709 
     67 N          33.5200   29.8295    7.5152 N.am      11 UNK        -0.7358 
     68 O          33.6146   27.9747    8.7151 O.2       11 UNK        -0.4999 
     69 C69        32.5134   27.1542    5.7162 C.3       12 UNK        -0.0954 
     70 S70        31.7451   25.8242    6.6984 S.3       12 UNK        -0.2268 
     71 C71        32.4533   24.3357    5.9292 C.3       12 UNK         0.0203 
     72 H72        34.7173   26.8491   -1.7145 H         1 UNK         0.0888 
     73 H73        35.0727   27.0577    0.0013 H         1 UNK         0.0888 
     74 H74        34.4030   25.5334   -0.5806 H         1 UNK         0.0888 
     75 H75        32.1871   25.3095   -0.2991 H         1 UNK         0.3017 
     76 H76        30.5252   27.6215    0.3683 H         1 UNK         0.0873 
     77 H77        30.2158   25.6838    1.7924 H         1 UNK         0.0745 
     78 H78        28.7711   25.9487    0.8777 H         1 UNK         0.0745 
     79 H79        31.3455   22.1559    0.7961 H         1 UNK         0.0705 
     80 H80        32.1041   23.7167    0.9549 H         1 UNK         0.0705 
     81 H81        32.5848   24.3433    3.1923 H         1 UNK         0.1334 
     82 H82        30.2154   22.9085    6.4605 H         1 UNK         0.1417 
     83 H83        29.1678   21.8588    2.4357 H         1 UNK         0.1562 
     84 H84        28.2726   21.6214    6.1137 H         1 UNK         0.0748 
     85 H85        28.5231   20.4609    4.8331 H         1 UNK         0.0748 
     86 H86        27.5301   24.0733    5.2947 H         1 UNK         0.0940 
     87 H87        25.7986   24.0381    5.1576 H         1 UNK         0.0940 
     88 H88        27.7530   24.4019    2.8297 H         1 UNK         0.0703 
     89 H89        26.1229   23.9801    1.4278 H         1 UNK         0.3081 
     90 H90        23.4324   22.9718    1.2842 H         1 UNK         0.0719 
     91 H91        22.2814   25.8125    1.2743 H         1 UNK         0.0809 
     92 H92        21.5910   24.4360    0.4155 H         1 UNK         0.0809 
     93 H93        21.6466   24.4381    2.1687 H         1 UNK         0.0809 
     94 H94        24.2033   23.5469   -0.7268 H         1 UNK         0.2990 
     95 H95        25.6980   24.5750   -2.1967 H         1 UNK         0.0690 
     96 H96        24.3994   25.8760   -3.9159 H         1 UNK         0.0788 
     97 H97        23.6536   26.8448   -2.6466 H         1 UNK         0.0788 
     98 H98        23.2872   25.1308   -2.7854 H         1 UNK         0.0788 
     99 H99        26.3752   27.0973   -1.1295 H         1 UNK         0.2993 
    100 H100       28.7954   27.9832   -3.6385 H         1 UNK         0.0949 
    101 H101       26.8336   29.5416   -3.5354 H         1 UNK         0.0767 
    102 H102       26.7883   29.3841   -1.7833 H         1 UNK         0.0767 
    103 H103       28.1791   30.1257   -2.5690 H         1 UNK         0.0767 
    104 H104       28.5662   28.0987   -0.6997 H         1 UNK         0.3013 
    105 H105       25.7974   26.6681    1.9385 H         1 UNK         0.3121 
    106 H106       26.5189   28.8034    3.8392 H         1 UNK         0.0774 
    107 H107       25.2901   30.2447    2.2674 H         1 UNK         0.0815 
    108 H108       25.1575   28.9467    1.0928 H         1 UNK         0.0815 
    109 H109       24.3052   28.8351    2.6318 H         1 UNK         0.0815 
    110 H110       28.3294   30.0821    3.5918 H         1 UNK         0.2987 
    111 H111       29.9082   30.0512    1.1085 H         1 UNK         0.0949 
    112 H112       31.9251   29.2626    2.2888 H         1 UNK         0.0806 
    113 H113       31.0841   29.2471    3.8316 H         1 UNK         0.0806 
    114 H114       30.6774   28.0643    2.6041 H         1 UNK         0.0806 
    115 H115       31.7539   31.5856    1.3301 H         1 UNK         0.3010 
    116 H116       31.5756   33.6204    3.4394 H         1 UNK         0.0829 
    117 H117       30.3373   34.6319    1.4910 H         1 UNK         0.0813 
    118 H118       31.8818   35.4333    1.7360 H         1 UNK         0.0813 
    119 H119       31.6973   34.2705    0.4288 H         1 UNK         0.0813 
    120 H120       33.6221   34.2706    3.9912 H         1 UNK         0.3038 
    121 H121       35.7731   34.2256    4.3912 H         1 UNK         0.0769 
    122 H122       36.2592   33.4397    1.4691 H         1 UNK         0.0811 
    123 H123       37.4632   34.0286    2.6016 H         1 UNK         0.0811 
    124 H124       36.1546   35.0840    2.0941 H         1 UNK         0.0811 
    125 H125       34.9771   31.3837    2.4180 H         1 UNK         0.3204 
    126 H126       36.5995   29.5053    4.0066 H         1 UNK         0.0748 
    127 H127       36.2450   29.1174    1.5573 H         1 UNK         0.0771 
    128 H128       35.5224   27.8166    2.4896 H         1 UNK         0.0771 
    129 H129       34.5000   29.0705    1.7994 H         1 UNK         0.0771 
    130 H130       35.6214   27.7685    5.1844 H         1 UNK         0.2980 
    131 H131       34.4071   26.7747    6.6540 H         1 UNK         0.0545 
    132 H132       33.3933   30.3883    8.3437 H         1 UNK         0.3459 
    133 H133       33.5036   30.2523    6.5938 H         1 UNK         0.3459 
    134 H134       31.7992   27.9739    5.6323 H         1 UNK         0.0616 
    135 H135       32.6639   26.7856    4.7002 H         1 UNK         0.0616 
    136 H136       33.4102   24.5718    5.4612 H         1 UNK         0.0634 
    137 H137       32.6763   23.6151    6.7174 H         1 UNK         0.0634 
@<TRIPOS>BOND
     1    1    2 1    
     2    1   72 1    
     3    1   73 1    
     4    1   74 1    
     5    2    3 2    
     6    2    4 am   BACKBONE|DICT|INTERRES
     7    4    5 1    
     8    4   75 1    
     9    5    6 1    
    10    5   35 1    
    11    5   76 1    
    12    6    7 1    
    13    6   77 1    
    14    6   78 1    
    15    7    8 1    
    16    8    9 1    
    17    8   79 1    
    18    8   80 1    
    19    9   10 ar   
    20    9   14 ar   
    21   10   11 ar   
    22   10   81 1    
    23   11   12 ar   
    24   11   71 1    
    25   12   13 ar   
    26   12   82 1    
    27   13   14 ar   
    28   13   15 1    
    29   14   83 1    
    30   15   16 1    
    31   15   84 1    
    32   15   85 1    
    33   16   17 1    
    34   17   18 1    
    35   17   86 1    
    36   17   87 1    
    37   18   19 1    
    38   18   37 1    
    39   18   88 1    
    40   19   20 am   BACKBONE|DICT|INTERRES
    41   19   89 1    
    42   20   21 2    
    43   20   22 1    
    44   22   23 1    
    45   22   24 1    
    46   22   90 1    
    47   23   91 1    
    48   23   92 1    
    49   23   93 1    
    50   24   25 am   BACKBONE|DICT|INTERRES
    51   24   94 1    
    52   25   26 2    
    53   25   27 1    
    54   27   28 1    
    55   27   29 1    
    56   27   95 1    
    57   28   96 1    
    58   28   97 1    
    59   28   98 1    
    60   29   30 am   BACKBONE|DICT|INTERRES
    61   29   99 1    
    62   30   31 2    
    63   30   32 1    
    64   32   33 1    
    65   32   34 1    
    66   32  100 1    
    67   33  101 1    
    68   33  102 1    
    69   33  103 1    
    70   34   35 am   BACKBONE|DICT|INTERRES
    71   34  104 1    
    72   35   36 2    
    73   37   38 2    
    74   37   39 am   BACKBONE|DICT|INTERRES
    75   39   40 1    
    76   39  105 1    
    77   40   41 1    
    78   40   42 1    
    79   40  106 1    
    80   41  107 1    
    81   41  108 1    
    82   41  109 1    
    83   42   43 2    
    84   42   44 am   BACKBONE|DICT|INTERRES
    85   44   45 1    
    86   44  110 1    
    87   45   46 1    
    88   45   47 1    
    89   45  111 1    
    90   46  112 1    
    91   46  113 1    
    92   46  114 1    
    93   47   48 2    
    94   47   49 am   BACKBONE|DICT|INTERRES
    95   49   50 1    
    96   49  115 1    
    97   50   51 1    
    98   50   52 1    
    99   50  116 1    
   100   51  117 1    
   101   51  118 1    
   102   51  119 1    
   103   52   53 2    
   104   52   54 am   BACKBONE|DICT|INTERRES
   105   54   55 1    
   106   54  120 1    
   107   55   56 1    
   108   55   57 1    
   109   55  121 1    
   110   56  122 1    
   111   56  123 1    
   112   56  124 1    
   113   57   58 2    
   114   57   59 am   BACKBONE|DICT|INTERRES
   115   59   60 1    
   116   59  125 1    
   117   60   61 1    
   118   60   62 1    
   119   60  126 1    
   120   61  127 1    
   121   61  128 1    
   122   61  129 1    
   123   62   63 2    
   124   62   64 am   BACKBONE|DICT|INTERRES
   125   64   65 1    
   126   64  130 1    
   127   65   66 1    
   128   65   69 1    
   129   65  131 1    
   130   66   67 am   BACKBONE|DICT|INTERRES
   131   66   68 2    
   132   67  132 1    
   133   67  133 1    
   134   69   70 1    
   135   69  134 1    
   136   69  135 1    
   137   70   71 1    
   138   71  136 1    
   139   71  137 1    
@<TRIPOS>SUBSTRUCTURE
     1 UNK         1 GROUP             0       ****    0 ROOT    
