@<TRIPOS>MOLECULE
3R136
137   139    1
SMALL
USER_CHARGES


@<TRIPOS>ATOM
      1 CA         32.4470   21.7443   -3.1468 C.3       0 UNK        -0.1979 
      2 C          31.5523   22.9524   -3.3814 C.2       0 UNK         0.4864 
      3 O          31.0417   23.1298   -4.4879 O.2       0 UNK        -0.5359 
      4 N          31.3544   23.7813   -2.3465 N.am      1 UNK        -0.4318 
      5 CA         30.5368   25.0029   -2.3886 C.3       1 UNK         0.0824 
      6 C6         31.0133   26.0335   -1.3260 C.3       12 UNK        -0.0944 
      7 S7         30.2907   25.8993    0.3460 S.3       12 UNK        -0.2672 
      8 C8         31.2015   24.5038    1.0735 C.3       12 UNK         0.0333 
      9 C9         30.8315   24.3613    2.5400 C.ar      12 UNK        -0.0807 
     10 C10        31.7055   24.7970    3.5394 C.ar      12 UNK        -0.0894 
     11 C11        31.3175   24.7710    4.8819 C.ar      12 UNK        -0.0804 
     12 C12        30.0550   24.2770    5.2254 C.ar      12 UNK        -0.0824 
     13 C13        29.1809   23.8189    4.2340 C.ar      12 UNK        -0.0762 
     14 C14        29.5810   23.8497    2.8953 C.ar      12 UNK        -0.0782 
     15 C15        27.7829   23.3397    4.5963 C.3       12 UNK         0.0230 
     16 S16        26.4947   24.4350    3.9132 S.3       12 UNK        -0.2608 
     17 C17        26.8650   26.0197    4.7413 C.3       12 UNK        -0.0989 
     18 CA         27.6962   26.9923    3.8627 C.3       5 UNK         0.0716 
     19 N          27.0537   27.2606    2.5748 N.am      5 UNK        -0.4135 
     20 C          27.4923   28.0477    1.5827 C.2       4 UNK         0.5031 
     21 O          28.5221   28.7298    1.6460 O.2       4 UNK        -0.5229 
     22 CA         26.6207   28.0971    0.3063 C.3       4 UNK         0.0329 
     23 CB         27.3762   28.6842   -0.8975 C.3       4 UNK        -0.2001 
     24 N          26.0531   26.7997   -0.0863 N.am      4 UNK        -0.4303 
     25 C          24.9999   26.2048    0.4927 C.2       3 UNK         0.5044 
     26 O          24.4295   26.6706    1.4799 O.2       3 UNK        -0.5152 
     27 CA         24.4776   24.8848   -0.1049 C.3       3 UNK         0.0319 
     28 CB         23.0892   25.0931   -0.7332 C.3       3 UNK        -0.2001 
     29 N          25.3571   24.2753   -1.1047 N.am      3 UNK        -0.4354 
     30 C          26.4994   23.6308   -0.8354 C.2       2 UNK         0.4964 
     31 O          26.9698   23.5169    0.2962 O.2       2 UNK        -0.5047 
     32 CA         27.2390   22.9775   -2.0176 C.3       2 UNK         0.0288 
     33 CB         26.5058   23.0779   -3.3769 C.3       2 UNK        -0.2113 
     34 N          28.6129   23.4737   -2.1248 N.am      2 UNK        -0.4145 
     35 C          29.0103   24.7339   -2.3653 C.2       1 UNK         0.5006 
     36 O          28.2315   25.6696   -2.5626 O.2       1 UNK        -0.5103 
     37 C          27.9741   28.3001    4.6232 C.2       5 UNK         0.5055 
     38 O          27.0286   28.9730    5.0386 O.2       5 UNK        -0.5220 
     39 N          29.2627   28.6464    4.7422 N.am      6 UNK        -0.4450 
     40 CA         29.8163   29.8718    5.3342 C.3       6 UNK         0.0367 
     41 CB         29.4854   29.9637    6.8378 C.3       6 UNK        -0.1929 
     42 C          29.4708   31.1741    4.5822 C.2       6 UNK         0.5070 
     43 O          29.8513   32.2475    5.0491 O.2       6 UNK        -0.5237 
     44 N          28.8021   31.0748    3.4263 N.am      7 UNK        -0.4739 
     45 CA         28.4719   32.2018    2.5565 C.3       7 UNK         0.0276 
     46 CB         27.0823   31.9896    1.9322 C.3       7 UNK        -0.1927 
     47 C          29.5461   32.3645    1.4760 C.2       7 UNK         0.5013 
     48 O          30.0538   33.4712    1.2934 O.2       7 UNK        -0.5193 
     49 N          29.8877   31.2583    0.7997 N.am      8 UNK        -0.4253 
     50 CA         30.9405   31.2204   -0.2174 C.3       8 UNK         0.0242 
     51 CB         30.5501   30.2420   -1.3364 C.3       8 UNK        -0.2000 
     52 C          32.2893   30.8222    0.3931 C.2       8 UNK         0.4948 
     53 O          33.2981   31.4714    0.1167 O.2       8 UNK        -0.5275 
     54 N          32.2839   29.7531    1.2006 N.am      9 UNK        -0.4246 
     55 CA         33.4916   29.1381    1.7565 C.3       9 UNK         0.0261 
     56 CB         33.1841   27.6712    2.0879 C.3       9 UNK        -0.1959 
     57 C          34.0583   29.8469    2.9969 C.2       9 UNK         0.5033 
     58 O          35.1988   29.5630    3.3662 O.2       9 UNK        -0.5390 
     59 N          33.2539   30.6971    3.6533 N.am      10 UNK        -0.4215 
     60 CA         33.5006   31.4089    4.9222 C.3       10 UNK         0.0240 
     61 CB         34.6999   32.3702    4.8086 C.3       10 UNK        -0.1982 
     62 C          33.6343   30.5002    6.1639 C.2       10 UNK         0.4970 
     63 O          33.1113   30.8554    7.2198 O.2       10 UNK        -0.4916 
     64 N          34.2994   29.3493    6.0098 N.am      11 UNK        -0.4279 
     65 CA         34.4675   28.2644    6.9935 C.3       11 UNK         0.1003 
     66 C          35.3791   28.6175    8.2078 C.2       11 UNK         0.5709 
     67 N          36.1571   29.6926    8.1608 N.am      11 UNK        -0.7358 
     68 O          35.4119   27.8889    9.1971 O.2       11 UNK        -0.4999 
     69 C69        33.1229   27.6058    7.4244 C.3       12 UNK        -0.0954 
     70 S70        32.0619   27.1410    6.0151 S.3       12 UNK        -0.2268 
     71 C71        32.2399   25.3356    5.9506 C.3       12 UNK         0.0203 
     72 H72        32.8232   21.7060   -2.1246 H         1 UNK         0.0888 
     73 H73        31.8946   20.8249   -3.3394 H         1 UNK         0.0888 
     74 H74        33.3023   21.7752   -3.8212 H         1 UNK         0.0888 
     75 H75        31.8128   23.5899   -1.4681 H         1 UNK         0.3017 
     76 H76        30.7248   25.4638   -3.3612 H         1 UNK         0.0873 
     77 H77        30.7576   27.0313   -1.6838 H         1 UNK         0.0745 
     78 H78        32.1017   26.0356   -1.2468 H         1 UNK         0.0745 
     79 H79        32.2749   24.6601    0.9568 H         1 UNK         0.0705 
     80 H80        30.9507   23.5845    0.5434 H         1 UNK         0.0705 
     81 H81        32.6741   25.1951    3.2732 H         1 UNK         0.1334 
     82 H82        29.7443   24.2758    6.2613 H         1 UNK         0.1417 
     83 H83        28.8929   23.5303    2.1235 H         1 UNK         0.1562 
     84 H84        27.6589   23.2679    5.6779 H         1 UNK         0.0748 
     85 H85        27.6366   22.3333    4.2017 H         1 UNK         0.0748 
     86 H86        27.3800   25.8184    5.6826 H         1 UNK         0.0940 
     87 H87        25.9112   26.4757    5.0149 H         1 UNK         0.0940 
     88 H88        28.6523   26.5176    3.6359 H         1 UNK         0.0703 
     89 H89        26.1637   26.7970    2.4290 H         1 UNK         0.3081 
     90 H90        25.7923   28.7727    0.5289 H         1 UNK         0.0719 
     91 H91        28.2529   28.0853   -1.1465 H         1 UNK         0.0809 
     92 H92        26.7418   28.7315   -1.7826 H         1 UNK         0.0809 
     93 H93        27.7123   29.7001   -0.6916 H         1 UNK         0.0809 
     94 H94        26.5045   26.3288   -0.8599 H         1 UNK         0.2990 
     95 H95        24.3715   24.1826    0.7251 H         1 UNK         0.0690 
     96 H96        22.6673   24.1520   -1.0865 H         1 UNK         0.0788 
     97 H97        23.1274   25.7836   -1.5768 H         1 UNK         0.0788 
     98 H98        22.3878   25.5058   -0.0065 H         1 UNK         0.0788 
     99 H99        25.0590   24.3336   -2.0679 H         1 UNK         0.2993 
    100 H100       27.3158   21.9180   -1.7679 H         1 UNK         0.0949 
    101 H101       26.3730   24.1094   -3.7049 H         1 UNK         0.0767 
    102 H102       27.0636   22.5585   -4.1565 H         1 UNK         0.0767 
    103 H103       25.5206   22.6117   -3.3306 H         1 UNK         0.0767 
    104 H104       29.3355   22.7921   -1.9457 H         1 UNK         0.3013 
    105 H105       29.9512   28.0145    4.3557 H         1 UNK         0.3121 
    106 H106       30.8974   29.7702    5.2498 H         1 UNK         0.0774 
    107 H107       30.0292   30.7849    7.3066 H         1 UNK         0.0815 
    108 H108       28.4231   30.1362    7.0116 H         1 UNK         0.0815 
    109 H109       29.7707   29.0516    7.3619 H         1 UNK         0.0815 
    110 H110       28.5630   30.1505    3.0833 H         1 UNK         0.2987 
    111 H111       28.4371   33.1249    3.1399 H         1 UNK         0.0949 
    112 H112       26.8073   32.8357    1.3011 H         1 UNK         0.0806 
    113 H113       27.0405   31.0951    1.3117 H         1 UNK         0.0806 
    114 H114       26.3154   31.8968    2.7015 H         1 UNK         0.0806 
    115 H115       29.4193   30.3846    1.0228 H         1 UNK         0.3010 
    116 H116       31.0579   32.2082   -0.6691 H         1 UNK         0.0829 
    117 H117       29.6547   30.5774   -1.8593 H         1 UNK         0.0813 
    118 H118       31.3439   30.1596   -2.0802 H         1 UNK         0.0813 
    119 H119       30.3610   29.2416   -0.9480 H         1 UNK         0.0813 
    120 H120       31.4125   29.2652    1.3538 H         1 UNK         0.3038 
    121 H121       34.2744   29.1537    0.9948 H         1 UNK         0.0769 
    122 H122       34.0511   27.1744    2.5258 H         1 UNK         0.0811 
    123 H123       32.9170   27.1153    1.1900 H         1 UNK         0.0811 
    124 H124       32.3615   27.5835    2.7985 H         1 UNK         0.0811 
    125 H125       32.3434   30.8515    3.2460 H         1 UNK         0.3204 
    126 H126       32.6136   32.0222    5.0878 H         1 UNK         0.0748 
    127 H127       34.8051   32.9683    5.7148 H         1 UNK         0.0771 
    128 H128       35.6406   31.8391    4.6614 H         1 UNK         0.0771 
    129 H129       34.5732   33.0631    3.9766 H         1 UNK         0.0771 
    130 H130       34.7338   29.1948    5.1030 H         1 UNK         0.2980 
    131 H131       35.0280   27.4979    6.4577 H         1 UNK         0.0545 
    132 H132       36.7520   29.9069    8.9454 H         1 UNK         0.3459 
    133 H133       36.1485   30.2922    7.3518 H         1 UNK         0.3459 
    134 H134       32.5535   28.2890    8.0564 H         1 UNK         0.0616 
    135 H135       33.3076   26.7182    8.0316 H         1 UNK         0.0616 
    136 H136       32.0033   24.9075    6.9259 H         1 UNK         0.0634 
    137 H137       33.2772   25.0773    5.7327 H         1 UNK         0.0634 
@<TRIPOS>BOND
     1    1    2 1    
     2    1   72 1    
     3    1   73 1    
     4    1   74 1    
     5    2    3 2    
     6    2    4 am   BACKBONE|DICT|INTERRES
     7    4    5 1    
     8    4   75 1    
     9    5    6 1    
    10    5   35 1    
    11    5   76 1    
    12    6    7 1    
    13    6   77 1    
    14    6   78 1    
    15    7    8 1    
    16    8    9 1    
    17    8   79 1    
    18    8   80 1    
    19    9   10 ar   
    20    9   14 ar   
    21   10   11 ar   
    22   10   81 1    
    23   11   12 ar   
    24   11   71 1    
    25   12   13 ar   
    26   12   82 1    
    27   13   14 ar   
    28   13   15 1    
    29   14   83 1    
    30   15   16 1    
    31   15   84 1    
    32   15   85 1    
    33   16   17 1    
    34   17   18 1    
    35   17   86 1    
    36   17   87 1    
    37   18   19 1    
    38   18   37 1    
    39   18   88 1    
    40   19   20 am   BACKBONE|DICT|INTERRES
    41   19   89 1    
    42   20   21 2    
    43   20   22 1    
    44   22   23 1    
    45   22   24 1    
    46   22   90 1    
    47   23   91 1    
    48   23   92 1    
    49   23   93 1    
    50   24   25 am   BACKBONE|DICT|INTERRES
    51   24   94 1    
    52   25   26 2    
    53   25   27 1    
    54   27   28 1    
    55   27   29 1    
    56   27   95 1    
    57   28   96 1    
    58   28   97 1    
    59   28   98 1    
    60   29   30 am   BACKBONE|DICT|INTERRES
    61   29   99 1    
    62   30   31 2    
    63   30   32 1    
    64   32   33 1    
    65   32   34 1    
    66   32  100 1    
    67   33  101 1    
    68   33  102 1    
    69   33  103 1    
    70   34   35 am   BACKBONE|DICT|INTERRES
    71   34  104 1    
    72   35   36 2    
    73   37   38 2    
    74   37   39 am   BACKBONE|DICT|INTERRES
    75   39   40 1    
    76   39  105 1    
    77   40   41 1    
    78   40   42 1    
    79   40  106 1    
    80   41  107 1    
    81   41  108 1    
    82   41  109 1    
    83   42   43 2    
    84   42   44 am   BACKBONE|DICT|INTERRES
    85   44   45 1    
    86   44  110 1    
    87   45   46 1    
    88   45   47 1    
    89   45  111 1    
    90   46  112 1    
    91   46  113 1    
    92   46  114 1    
    93   47   48 2    
    94   47   49 am   BACKBONE|DICT|INTERRES
    95   49   50 1    
    96   49  115 1    
    97   50   51 1    
    98   50   52 1    
    99   50  116 1    
   100   51  117 1    
   101   51  118 1    
   102   51  119 1    
   103   52   53 2    
   104   52   54 am   BACKBONE|DICT|INTERRES
   105   54   55 1    
   106   54  120 1    
   107   55   56 1    
   108   55   57 1    
   109   55  121 1    
   110   56  122 1    
   111   56  123 1    
   112   56  124 1    
   113   57   58 2    
   114   57   59 am   BACKBONE|DICT|INTERRES
   115   59   60 1    
   116   59  125 1    
   117   60   61 1    
   118   60   62 1    
   119   60  126 1    
   120   61  127 1    
   121   61  128 1    
   122   61  129 1    
   123   62   63 2    
   124   62   64 am   BACKBONE|DICT|INTERRES
   125   64   65 1    
   126   64  130 1    
   127   65   66 1    
   128   65   69 1    
   129   65  131 1    
   130   66   67 am   BACKBONE|DICT|INTERRES
   131   66   68 2    
   132   67  132 1    
   133   67  133 1    
   134   69   70 1    
   135   69  134 1    
   136   69  135 1    
   137   70   71 1    
   138   71  136 1    
   139   71  137 1    
@<TRIPOS>SUBSTRUCTURE
     1 UNK         1 GROUP             0       ****    0 ROOT    
