@<TRIPOS>MOLECULE
3R136
137   139    1
SMALL
USER_CHARGES


@<TRIPOS>ATOM
      1 CA         32.6299   25.3913   -0.2378 C.3       0 UNK        -0.1979 
      2 C          31.2645   24.9480    0.2646 C.2       0 UNK         0.4864 
      3 O          30.5153   25.7631    0.8010 O.2       0 UNK        -0.5359 
      4 N          30.9313   23.6608    0.1099 N.am      1 UNK        -0.4318 
      5 CA         29.6339   23.1061    0.5179 C.3       1 UNK         0.0824 
      6 C6         29.6561   21.5635    0.6856 C.3       12 UNK        -0.0944 
      7 S7         31.1071   20.9413    1.6075 S.3       12 UNK        -0.2672 
      8 C8         30.5477   21.0215    3.3417 C.3       12 UNK         0.0333 
      9 C9         30.3076   22.4467    3.8287 C.ar      12 UNK        -0.0807 
     10 C10        31.2886   23.4325    3.6747 C.ar      12 UNK        -0.0894 
     11 C11        31.0561   24.7443    4.0997 C.ar      12 UNK        -0.0804 
     12 C12        29.8442   25.0629    4.7185 C.ar      12 UNK        -0.0824 
     13 C13        28.8626   24.0813    4.8953 C.ar      12 UNK        -0.0762 
     14 C14        29.0976   22.7795    4.4432 C.ar      12 UNK        -0.0782 
     15 C15        27.5465   24.4112    5.5821 C.3       12 UNK         0.0230 
     16 S16        26.2335   24.7705    4.3746 S.3       12 UNK        -0.2608 
     17 C17        26.6933   26.4509    3.8382 C.3       12 UNK        -0.0989 
     18 CA         27.2504   26.4940    2.3881 C.3       5 UNK         0.0716 
     19 N          26.2977   26.0354    1.3690 N.am      5 UNK        -0.4135 
     20 C          25.0704   26.5107    1.1145 C.2       4 UNK         0.5031 
     21 O          24.5548   27.4706    1.6888 O.2       4 UNK        -0.5229 
     22 CA         24.2925   25.7910    0.0045 C.3       4 UNK         0.0329 
     23 CB         22.8032   26.1994   -0.0469 C.3       4 UNK        -0.2001 
     24 N          24.9441   26.0603   -1.2740 N.am      4 UNK        -0.4303 
     25 C          24.7671   25.3559   -2.3979 C.2       3 UNK         0.5044 
     26 O          24.0142   24.3870   -2.4955 O.2       3 UNK        -0.5152 
     27 CA         25.5960   25.7841   -3.6215 C.3       3 UNK         0.0319 
     28 CB         24.8229   26.8227   -4.4499 C.3       3 UNK        -0.2001 
     29 N          26.9041   26.3378   -3.2539 N.am      3 UNK        -0.4354 
     30 C          27.9815   25.6655   -2.8198 C.2       2 UNK         0.4964 
     31 O          29.0071   26.2570   -2.4837 O.2       2 UNK        -0.5047 
     32 CA         27.9758   24.1205   -2.8045 C.3       2 UNK         0.0288 
     33 CB         28.4723   23.5717   -4.1530 C.3       2 UNK        -0.2113 
     34 N          28.8447   23.6112   -1.7463 N.am      2 UNK        -0.4145 
     35 C          28.5150   23.5441   -0.4488 C.2       1 UNK         0.5006 
     36 O          27.3999   23.8318   -0.0086 O.2       1 UNK        -0.5103 
     37 C          27.8134   27.8946    2.0759 C.2       5 UNK         0.5055 
     38 O          27.1441   28.9004    2.3241 O.2       5 UNK        -0.5220 
     39 N          29.0720   27.9571    1.6231 N.am      6 UNK        -0.4450 
     40 CA         29.8649   29.1850    1.5074 C.3       6 UNK         0.0367 
     41 CB         31.0075   28.9558    0.5019 C.3       6 UNK        -0.1929 
     42 C          30.3722   29.6513    2.8880 C.2       6 UNK         0.5070 
     43 O          31.5819   29.7206    3.1246 O.2       6 UNK        -0.5237 
     44 N          29.4299   29.9476    3.7909 N.am      7 UNK        -0.4739 
     45 CA         29.6757   30.5003    5.1219 C.3       7 UNK         0.0276 
     46 CB         28.3583   30.5299    5.9111 C.3       7 UNK        -0.1927 
     47 C          30.2874   31.9054    5.0195 C.2       7 UNK         0.5013 
     48 O          29.8520   32.6963    4.1789 O.2       7 UNK        -0.5193 
     49 N          31.3158   32.1672    5.8348 N.am      8 UNK        -0.4253 
     50 CA         32.1968   33.3450    5.8597 C.3       8 UNK         0.0242 
     51 CB         31.4134   34.6423    6.1406 C.3       8 UNK        -0.2000 
     52 C          33.0960   33.4919    4.6157 C.2       8 UNK         0.4948 
     53 O          34.2598   33.8650    4.7644 O.2       8 UNK        -0.5275 
     54 N          32.5594   33.1926    3.4253 N.am      9 UNK        -0.4246 
     55 CA         33.2587   33.2040    2.1399 C.3       9 UNK         0.0261 
     56 CB         32.2394   33.0313    1.0022 C.3       9 UNK        -0.1959 
     57 C          34.3700   32.1445    2.0522 C.2       9 UNK         0.5033 
     58 O          35.4725   32.4699    1.6082 O.2       9 UNK        -0.5390 
     59 N          34.0683   30.9148    2.4885 N.am      10 UNK        -0.4215 
     60 CA         35.0221   29.8120    2.6053 C.3       10 UNK         0.0240 
     61 CB         34.6158   28.6577    1.6716 C.3       10 UNK        -0.1982 
     62 C          35.0945   29.3397    4.0613 C.2       10 UNK         0.4970 
     63 O          36.1877   29.3038    4.6276 O.2       10 UNK        -0.4916 
     64 N          33.9379   28.9941    4.6411 N.am      11 UNK        -0.4279 
     65 CA         33.8164   28.5086    6.0208 C.3       11 UNK         0.1003 
     66 C          33.5620   29.6973    6.9781 C.2       11 UNK         0.5709 
     67 N          34.6118   30.3547    7.4495 N.am      11 UNK        -0.7358 
     68 O          32.4222   30.0365    7.2876 O.2       11 UNK        -0.4999 
     69 C69        32.7496   27.3890    6.1448 C.3       12 UNK        -0.0954 
     70 S70        33.2822   25.8848    5.2605 S.3       12 UNK        -0.2268 
     71 C71        32.1147   25.8117    3.8704 C.3       12 UNK         0.0203 
     72 H72        33.2066   24.5584   -0.6393 H         1 UNK         0.0888 
     73 H73        32.5112   26.1353   -1.0251 H         1 UNK         0.0888 
     74 H74        33.2024   25.8422    0.5719 H         1 UNK         0.0888 
     75 H75        31.5912   23.0068   -0.2864 H         1 UNK         0.3017 
     76 H76        29.3814   23.5373    1.4883 H         1 UNK         0.0873 
     77 H77        29.6677   21.0740   -0.2903 H         1 UNK         0.0745 
     78 H78        28.7452   21.2235    1.1820 H         1 UNK         0.0745 
     79 H79        31.3077   20.5621    3.9748 H         1 UNK         0.0705 
     80 H80        29.6486   20.4127    3.4493 H         1 UNK         0.0705 
     81 H81        32.2277   23.1825    3.2004 H         1 UNK         0.1334 
     82 H82        29.6689   26.0732    5.0610 H         1 UNK         0.1417 
     83 H83        28.3332   22.0253    4.5731 H         1 UNK         0.1562 
     84 H84        27.6652   25.2502    6.2696 H         1 UNK         0.0748 
     85 H85        27.2337   23.5648    6.1955 H         1 UNK         0.0748 
     86 H86        27.4214   26.8627    4.5389 H         1 UNK         0.0940 
     87 H87        25.8136   27.0888    3.9374 H         1 UNK         0.0940 
     88 H88        28.0851   25.7918    2.3412 H         1 UNK         0.0703 
     89 H89        26.6203   25.2386    0.8209 H         1 UNK         0.3081 
     90 H90        24.3502   24.7199    0.2118 H         1 UNK         0.0719 
     91 H91        22.3238   26.0477    0.9210 H         1 UNK         0.0809 
     92 H92        22.6833   27.2508   -0.3110 H         1 UNK         0.0809 
     93 H93        22.2480   25.6071   -0.7740 H         1 UNK         0.0809 
     94 H94        25.5989   26.8304   -1.2812 H         1 UNK         0.2990 
     95 H95        25.7439   24.9068   -4.2535 H         1 UNK         0.0690 
     96 H96        24.6400   27.7387   -3.8863 H         1 UNK         0.0788 
     97 H97        23.8522   26.4312   -4.7580 H         1 UNK         0.0788 
     98 H98        25.3648   27.0893   -5.3576 H         1 UNK         0.0788 
     99 H99        26.9773   27.3437   -3.3027 H         1 UNK         0.2993 
    100 H100       26.9742   23.7339   -2.6190 H         1 UNK         0.0949 
    101 H101       29.4865   23.9061   -4.3763 H         1 UNK         0.0767 
    102 H102       28.4689   22.4815   -4.1629 H         1 UNK         0.0767 
    103 H103       27.8345   23.9032   -4.9732 H         1 UNK         0.0767 
    104 H104       29.8011   23.4197   -2.0042 H         1 UNK         0.3013 
    105 H105       29.5725   27.0902    1.4102 H         1 UNK         0.3121 
    106 H106       29.2311   29.9805    1.1099 H         1 UNK         0.0774 
    107 H107       31.6141   29.8522    0.3750 H         1 UNK         0.0815 
    108 H108       31.6715   28.1570    0.8280 H         1 UNK         0.0815 
    109 H109       30.6203   28.6823   -0.4798 H         1 UNK         0.0815 
    110 H110       28.4621   29.8601    3.4973 H         1 UNK         0.2987 
    111 H111       30.3747   29.8368    5.6335 H         1 UNK         0.0949 
    112 H112       28.5176   30.9117    6.9205 H         1 UNK         0.0806 
    113 H113       27.6163   31.1705    5.4324 H         1 UNK         0.0806 
    114 H114       27.9295   29.5321    6.0059 H         1 UNK         0.0806 
    115 H115       31.6108   31.4174    6.4597 H         1 UNK         0.3010 
    116 H116       32.8677   33.1815    6.7048 H         1 UNK         0.0829 
    117 H117       30.8202   34.5579    7.0510 H         1 UNK         0.0813 
    118 H118       32.0945   35.4838    6.2741 H         1 UNK         0.0813 
    119 H119       30.7397   34.9012    5.3234 H         1 UNK         0.0813 
    120 H120       31.5740   32.9424    3.4183 H         1 UNK         0.3038 
    121 H121       33.7289   34.1833    2.0281 H         1 UNK         0.0769 
    122 H122       31.5351   33.8629    0.9748 H         1 UNK         0.0811 
    123 H123       32.7362   32.9960    0.0315 H         1 UNK         0.0811 
    124 H124       31.6635   32.1125    1.1110 H         1 UNK         0.0811 
    125 H125       33.1214   30.7214    2.8079 H         1 UNK         0.3204 
    126 H126       36.0231   30.1405    2.3176 H         1 UNK         0.0748 
    127 H127       34.5288   28.9946    0.6385 H         1 UNK         0.0771 
    128 H128       35.3611   27.8617    1.6932 H         1 UNK         0.0771 
    129 H129       33.6635   28.2148    1.9615 H         1 UNK         0.0771 
    130 H130       33.0704   29.0961    4.1224 H         1 UNK         0.2980 
    131 H131       34.7647   28.0624    6.3285 H         1 UNK         0.0545 
    132 H132       35.5459   30.0985    7.1668 H         1 UNK         0.3459 
    133 H133       34.4708   31.1266    8.0812 H         1 UNK         0.3459 
    134 H134       32.6049   27.1152    7.1913 H         1 UNK         0.0616 
    135 H135       31.7778   27.7271    5.7816 H         1 UNK         0.0616 
    136 H136       32.6779   25.5809    2.9661 H         1 UNK         0.0634 
    137 H137       31.6527   26.7834    3.6908 H         1 UNK         0.0634 
@<TRIPOS>BOND
     1    1    2 1    
     2    1   72 1    
     3    1   73 1    
     4    1   74 1    
     5    2    3 2    
     6    2    4 am   BACKBONE|DICT|INTERRES
     7    4    5 1    
     8    4   75 1    
     9    5    6 1    
    10    5   35 1    
    11    5   76 1    
    12    6    7 1    
    13    6   77 1    
    14    6   78 1    
    15    7    8 1    
    16    8    9 1    
    17    8   79 1    
    18    8   80 1    
    19    9   10 ar   
    20    9   14 ar   
    21   10   11 ar   
    22   10   81 1    
    23   11   12 ar   
    24   11   71 1    
    25   12   13 ar   
    26   12   82 1    
    27   13   14 ar   
    28   13   15 1    
    29   14   83 1    
    30   15   16 1    
    31   15   84 1    
    32   15   85 1    
    33   16   17 1    
    34   17   18 1    
    35   17   86 1    
    36   17   87 1    
    37   18   19 1    
    38   18   37 1    
    39   18   88 1    
    40   19   20 am   BACKBONE|DICT|INTERRES
    41   19   89 1    
    42   20   21 2    
    43   20   22 1    
    44   22   23 1    
    45   22   24 1    
    46   22   90 1    
    47   23   91 1    
    48   23   92 1    
    49   23   93 1    
    50   24   25 am   BACKBONE|DICT|INTERRES
    51   24   94 1    
    52   25   26 2    
    53   25   27 1    
    54   27   28 1    
    55   27   29 1    
    56   27   95 1    
    57   28   96 1    
    58   28   97 1    
    59   28   98 1    
    60   29   30 am   BACKBONE|DICT|INTERRES
    61   29   99 1    
    62   30   31 2    
    63   30   32 1    
    64   32   33 1    
    65   32   34 1    
    66   32  100 1    
    67   33  101 1    
    68   33  102 1    
    69   33  103 1    
    70   34   35 am   BACKBONE|DICT|INTERRES
    71   34  104 1    
    72   35   36 2    
    73   37   38 2    
    74   37   39 am   BACKBONE|DICT|INTERRES
    75   39   40 1    
    76   39  105 1    
    77   40   41 1    
    78   40   42 1    
    79   40  106 1    
    80   41  107 1    
    81   41  108 1    
    82   41  109 1    
    83   42   43 2    
    84   42   44 am   BACKBONE|DICT|INTERRES
    85   44   45 1    
    86   44  110 1    
    87   45   46 1    
    88   45   47 1    
    89   45  111 1    
    90   46  112 1    
    91   46  113 1    
    92   46  114 1    
    93   47   48 2    
    94   47   49 am   BACKBONE|DICT|INTERRES
    95   49   50 1    
    96   49  115 1    
    97   50   51 1    
    98   50   52 1    
    99   50  116 1    
   100   51  117 1    
   101   51  118 1    
   102   51  119 1    
   103   52   53 2    
   104   52   54 am   BACKBONE|DICT|INTERRES
   105   54   55 1    
   106   54  120 1    
   107   55   56 1    
   108   55   57 1    
   109   55  121 1    
   110   56  122 1    
   111   56  123 1    
   112   56  124 1    
   113   57   58 2    
   114   57   59 am   BACKBONE|DICT|INTERRES
   115   59   60 1    
   116   59  125 1    
   117   60   61 1    
   118   60   62 1    
   119   60  126 1    
   120   61  127 1    
   121   61  128 1    
   122   61  129 1    
   123   62   63 2    
   124   62   64 am   BACKBONE|DICT|INTERRES
   125   64   65 1    
   126   64  130 1    
   127   65   66 1    
   128   65   69 1    
   129   65  131 1    
   130   66   67 am   BACKBONE|DICT|INTERRES
   131   66   68 2    
   132   67  132 1    
   133   67  133 1    
   134   69   70 1    
   135   69  134 1    
   136   69  135 1    
   137   70   71 1    
   138   71  136 1    
   139   71  137 1    
@<TRIPOS>SUBSTRUCTURE
     1 UNK         1 GROUP             0       ****    0 ROOT    
