@<TRIPOS>MOLECULE
3R136
137   139    1
SMALL
USER_CHARGES


@<TRIPOS>ATOM
      1 CA         25.8965   20.1990    5.5003 C.3       0 UNK        -0.1979 
      2 C          26.2962   20.3187    4.0367 C.2       0 UNK         0.4864 
      3 O          25.6928   19.6648    3.1839 O.2       0 UNK        -0.5359 
      4 N          27.3121   21.1411    3.7433 N.am      1 UNK        -0.4318 
      5 CA         27.7848   21.4366    2.3863 C.3       1 UNK         0.0824 
      6 C6         29.2708   21.8814    2.3965 C.3       12 UNK        -0.0944 
      7 S7         30.1408   21.3845    0.8740 S.3       12 UNK        -0.2672 
      8 C8         31.8710   21.7148    1.3286 C.3       12 UNK         0.0333 
      9 C9         32.2378   23.1775    1.1280 C.ar      12 UNK        -0.0807 
     10 C10        32.3497   24.0442    2.2195 C.ar      12 UNK        -0.0894 
     11 C11        32.7284   25.3767    2.0269 C.ar      12 UNK        -0.0804 
     12 C12        32.9946   25.8393    0.7344 C.ar      12 UNK        -0.0824 
     13 C13        32.8687   24.9866   -0.3677 C.ar      12 UNK        -0.0762 
     14 C14        32.4933   23.6561   -0.1603 C.ar      12 UNK        -0.0782 
     15 C15        33.1679   25.4714   -1.7838 C.3       12 UNK         0.0230 
     16 S16        32.4378   27.0933   -2.1887 S.3       12 UNK        -0.2608 
     17 C17        30.6485   26.7669   -2.0359 C.3       12 UNK        -0.0989 
     18 CA         29.8884   27.9955   -1.4766 C.3       5 UNK         0.0716 
     19 N          28.4570   27.9243   -1.7705 N.am      5 UNK        -0.4135 
     20 C          27.7239   28.9296   -2.2698 C.2       4 UNK         0.5031 
     21 O          28.1914   30.0040   -2.6492 O.2       4 UNK        -0.5229 
     22 CA         26.2005   28.7103   -2.3528 C.3       4 UNK         0.0329 
     23 CB         25.8132   28.1383   -3.7260 C.3       4 UNK        -0.2001 
     24 N          25.6879   27.8301   -1.3000 N.am      4 UNK        -0.4303 
     25 C          25.7194   28.1075    0.0116 C.2       3 UNK         0.5044 
     26 O          26.0640   29.1964    0.4690 O.2       3 UNK        -0.5152 
     27 CA         25.3297   26.9779    0.9836 C.3       3 UNK         0.0319 
     28 CB         23.9242   27.2251    1.5543 C.3       3 UNK        -0.2001 
     29 N          25.3883   25.6178    0.4289 N.am      3 UNK        -0.4354 
     30 C          26.4739   25.0146   -0.0761 C.2       2 UNK         0.4964 
     31 O          27.5617   25.5729   -0.2366 O.2       2 UNK        -0.5047 
     32 CA         26.3124   23.5449   -0.4959 C.3       2 UNK         0.0288 
     33 CB         26.7632   23.3430   -1.9529 C.3       2 UNK        -0.2113 
     34 N          27.0721   22.6418    0.3713 N.am      2 UNK        -0.4145 
     35 C          26.8664   22.4643    1.6840 C.2       1 UNK         0.5006 
     36 O          25.9998   23.0659    2.3258 O.2       1 UNK        -0.5103 
     37 C          30.0912   28.1684    0.0403 C.2       5 UNK         0.5055 
     38 O          30.8441   29.0487    0.4606 O.2       5 UNK        -0.5220 
     39 N          29.3858   27.3609    0.8447 N.am      6 UNK        -0.4450 
     40 CA         29.4388   27.3512    2.3063 C.3       6 UNK         0.0367 
     41 CB         29.0359   25.9555    2.8112 C.3       6 UNK        -0.1929 
     42 C          28.6183   28.4822    2.9481 C.2       6 UNK         0.5070 
     43 O          27.8159   28.2353    3.8507 O.2       6 UNK        -0.5237 
     44 N          28.8556   29.7184    2.4988 N.am      7 UNK        -0.4739 
     45 CA         28.2547   30.9431    3.0246 C.3       7 UNK         0.0276 
     46 CB         28.2734   32.0200    1.9248 C.3       7 UNK        -0.1927 
     47 C          28.9594   31.3870    4.3208 C.2       7 UNK         0.5013 
     48 O          29.5919   32.4455    4.3506 O.2       7 UNK        -0.5193 
     49 N          28.8583   30.5414    5.3577 N.am      8 UNK        -0.4253 
     50 CA         29.3962   30.7010    6.7135 C.3       8 UNK         0.0242 
     51 CB         28.5420   31.7195    7.5024 C.3       8 UNK        -0.2000 
     52 C          30.9038   31.0207    6.7118 C.2       8 UNK         0.4948 
     53 O          31.7118   30.1294    6.4428 O.2       8 UNK        -0.5275 
     54 N          31.2485   32.2905    6.9711 N.am      9 UNK        -0.4246 
     55 CA         32.6074   32.8396    6.9940 C.3       9 UNK         0.0261 
     56 CB         32.5442   34.3134    7.4269 C.3       9 UNK        -0.1959 
     57 C          33.3870   32.7018    5.6727 C.2       9 UNK         0.5033 
     58 O          34.6156   32.7890    5.7018 O.2       9 UNK        -0.5390 
     59 N          32.6911   32.4508    4.5520 N.am      10 UNK        -0.4215 
     60 CA         33.2789   32.1622    3.2382 C.3       10 UNK         0.0240 
     61 CB         32.1550   31.9710    2.2094 C.3       10 UNK        -0.1982 
     62 C          34.2352   30.9524    3.2131 C.2       10 UNK         0.4970 
     63 O          35.1122   30.9123    2.3492 O.2       10 UNK        -0.4916 
     64 N          34.0765   30.0121    4.1572 N.am      11 UNK        -0.4279 
     65 CA         35.0164   28.9020    4.3819 C.3       11 UNK         0.1003 
     66 C          36.3489   29.3095    5.0810 C.2       11 UNK         0.5709 
     67 N          36.5092   30.5331    5.5734 N.am      11 UNK        -0.7358 
     68 O          37.2661   28.4967    5.1698 O.2       11 UNK        -0.4999 
     69 C69        34.3230   27.6981    5.0891 C.3       12 UNK        -0.0954 
     70 S70        34.4085   26.1812    4.0809 S.3       12 UNK        -0.2268 
     71 C71        32.8258   26.3285    3.2076 C.3       12 UNK         0.0203 
     72 H72        26.5220   20.8154    6.1459 H         1 UNK         0.0888 
     73 H73        24.8612   20.5121    5.6327 H         1 UNK         0.0888 
     74 H74        25.9852   19.1643    5.8305 H         1 UNK         0.0888 
     75 H75        27.7401   21.6789    4.4831 H         1 UNK         0.3017 
     76 H76        27.7098   20.5065    1.8175 H         1 UNK         0.0873 
     77 H77        29.7955   21.4072    3.2279 H         1 UNK         0.0745 
     78 H78        29.3756   22.9548    2.5529 H         1 UNK         0.0745 
     79 H79        32.0554   21.4020    2.3575 H         1 UNK         0.0705 
     80 H80        32.5184   21.0953    0.7061 H         1 UNK         0.0705 
     81 H81        32.1490   23.6832    3.2190 H         1 UNK         0.1334 
     82 H82        33.2901   26.8690    0.5846 H         1 UNK         0.1417 
     83 H83        32.4056   22.9827   -1.0025 H         1 UNK         0.1562 
     84 H84        32.8204   24.7467   -2.5220 H         1 UNK         0.0748 
     85 H85        34.2499   25.5376   -1.9047 H         1 UNK         0.0748 
     86 H86        30.4633   25.8762   -1.4319 H         1 UNK         0.0940 
     87 H87        30.2831   26.5280   -3.0360 H         1 UNK         0.0940 
     88 H88        30.3031   28.8856   -1.9551 H         1 UNK         0.0703 
     89 H89        27.9798   27.0867   -1.4545 H         1 UNK         0.3081 
     90 H90        25.7204   29.6845   -2.2377 H         1 UNK         0.0719 
     91 H91        26.1625   28.7872   -4.5305 H         1 UNK         0.0809 
     92 H92        26.2479   27.1516   -3.8916 H         1 UNK         0.0809 
     93 H93        24.7314   28.0516   -3.8296 H         1 UNK         0.0809 
     94 H94        25.3636   26.9174   -1.5836 H         1 UNK         0.2990 
     95 H95        26.0406   27.0180    1.8110 H         1 UNK         0.0690 
     96 H96        23.8547   28.2153    2.0075 H         1 UNK         0.0788 
     97 H97        23.6774   26.5001    2.3303 H         1 UNK         0.0788 
     98 H98        23.1580   27.1659    0.7803 H         1 UNK         0.0788 
     99 H99        24.5453   25.0696    0.5266 H         1 UNK         0.2993 
    100 H100       25.2583   23.2686   -0.4247 H         1 UNK         0.0949 
    101 H101       26.5855   22.3198   -2.2849 H         1 UNK         0.0767 
    102 H102       26.2141   24.0012   -2.6277 H         1 UNK         0.0767 
    103 H103       27.8254   23.5569   -2.0817 H         1 UNK         0.0767 
    104 H104       27.8447   22.1504   -0.0571 H         1 UNK         0.3013 
    105 H105       28.7588   26.6753    0.4259 H         1 UNK         0.3121 
    106 H106       30.4689   27.5276    2.6075 H         1 UNK         0.0774 
    107 H107       29.1631   25.8750    3.8913 H         1 UNK         0.0815 
    108 H108       27.9949   25.7241    2.5849 H         1 UNK         0.0815 
    109 H109       29.6574   25.1890    2.3518 H         1 UNK         0.0815 
    110 H110       29.5558   29.8216    1.7706 H         1 UNK         0.2987 
    111 H111       27.2090   30.7472    3.2733 H         1 UNK         0.0949 
    112 H112       27.8390   32.9538    2.2838 H         1 UNK         0.0806 
    113 H113       29.2848   32.2383    1.5839 H         1 UNK         0.0806 
    114 H114       27.6913   31.7043    1.0583 H         1 UNK         0.0806 
    115 H115       28.3758   29.6661    5.1751 H         1 UNK         0.3010 
    116 H116       29.2935   29.7327    7.2058 H         1 UNK         0.0829 
    117 H117       28.5107   32.6981    7.0218 H         1 UNK         0.0813 
    118 H118       27.5130   31.3717    7.5952 H         1 UNK         0.0813 
    119 H119       28.9223   31.8551    8.5161 H         1 UNK         0.0813 
    120 H120       30.4999   32.9486    7.1339 H         1 UNK         0.3038 
    121 H121       33.1666   32.2842    7.7498 H         1 UNK         0.0769 
    122 H122       31.9699   34.9161    6.7222 H         1 UNK         0.0811 
    123 H123       33.5438   34.7468    7.4869 H         1 UNK         0.0811 
    124 H124       32.0890   34.4202    8.4118 H         1 UNK         0.0811 
    125 H125       31.6776   32.4217    4.6127 H         1 UNK         0.3204 
    126 H126       33.8627   33.0378    2.9475 H         1 UNK         0.0748 
    127 H127       32.5592   31.7838    1.2135 H         1 UNK         0.0771 
    128 H128       31.5178   31.1236    2.4644 H         1 UNK         0.0771 
    129 H129       31.5280   32.8601    2.1422 H         1 UNK         0.0771 
    130 H130       33.3396   30.1226    4.8428 H         1 UNK         0.2980 
    131 H131       35.3320   28.5761    3.3888 H         1 UNK         0.0545 
    132 H132       37.3834   30.7688    6.0148 H         1 UNK         0.3459 
    133 H133       35.7756   31.2324    5.5140 H         1 UNK         0.3459 
    134 H134       33.2764   27.9144    5.3118 H         1 UNK         0.0616 
    135 H135       34.7715   27.4772    6.0597 H         1 UNK         0.0616 
    136 H136       32.0107   26.1420    3.9084 H         1 UNK         0.0634 
    137 H137       32.7170   27.3580    2.8623 H         1 UNK         0.0634 
@<TRIPOS>BOND
     1    1    2 1    
     2    1   72 1    
     3    1   73 1    
     4    1   74 1    
     5    2    3 2    
     6    2    4 am   BACKBONE|DICT|INTERRES
     7    4    5 1    
     8    4   75 1    
     9    5    6 1    
    10    5   35 1    
    11    5   76 1    
    12    6    7 1    
    13    6   77 1    
    14    6   78 1    
    15    7    8 1    
    16    8    9 1    
    17    8   79 1    
    18    8   80 1    
    19    9   10 ar   
    20    9   14 ar   
    21   10   11 ar   
    22   10   81 1    
    23   11   12 ar   
    24   11   71 1    
    25   12   13 ar   
    26   12   82 1    
    27   13   14 ar   
    28   13   15 1    
    29   14   83 1    
    30   15   16 1    
    31   15   84 1    
    32   15   85 1    
    33   16   17 1    
    34   17   18 1    
    35   17   86 1    
    36   17   87 1    
    37   18   19 1    
    38   18   37 1    
    39   18   88 1    
    40   19   20 am   BACKBONE|DICT|INTERRES
    41   19   89 1    
    42   20   21 2    
    43   20   22 1    
    44   22   23 1    
    45   22   24 1    
    46   22   90 1    
    47   23   91 1    
    48   23   92 1    
    49   23   93 1    
    50   24   25 am   BACKBONE|DICT|INTERRES
    51   24   94 1    
    52   25   26 2    
    53   25   27 1    
    54   27   28 1    
    55   27   29 1    
    56   27   95 1    
    57   28   96 1    
    58   28   97 1    
    59   28   98 1    
    60   29   30 am   BACKBONE|DICT|INTERRES
    61   29   99 1    
    62   30   31 2    
    63   30   32 1    
    64   32   33 1    
    65   32   34 1    
    66   32  100 1    
    67   33  101 1    
    68   33  102 1    
    69   33  103 1    
    70   34   35 am   BACKBONE|DICT|INTERRES
    71   34  104 1    
    72   35   36 2    
    73   37   38 2    
    74   37   39 am   BACKBONE|DICT|INTERRES
    75   39   40 1    
    76   39  105 1    
    77   40   41 1    
    78   40   42 1    
    79   40  106 1    
    80   41  107 1    
    81   41  108 1    
    82   41  109 1    
    83   42   43 2    
    84   42   44 am   BACKBONE|DICT|INTERRES
    85   44   45 1    
    86   44  110 1    
    87   45   46 1    
    88   45   47 1    
    89   45  111 1    
    90   46  112 1    
    91   46  113 1    
    92   46  114 1    
    93   47   48 2    
    94   47   49 am   BACKBONE|DICT|INTERRES
    95   49   50 1    
    96   49  115 1    
    97   50   51 1    
    98   50   52 1    
    99   50  116 1    
   100   51  117 1    
   101   51  118 1    
   102   51  119 1    
   103   52   53 2    
   104   52   54 am   BACKBONE|DICT|INTERRES
   105   54   55 1    
   106   54  120 1    
   107   55   56 1    
   108   55   57 1    
   109   55  121 1    
   110   56  122 1    
   111   56  123 1    
   112   56  124 1    
   113   57   58 2    
   114   57   59 am   BACKBONE|DICT|INTERRES
   115   59   60 1    
   116   59  125 1    
   117   60   61 1    
   118   60   62 1    
   119   60  126 1    
   120   61  127 1    
   121   61  128 1    
   122   61  129 1    
   123   62   63 2    
   124   62   64 am   BACKBONE|DICT|INTERRES
   125   64   65 1    
   126   64  130 1    
   127   65   66 1    
   128   65   69 1    
   129   65  131 1    
   130   66   67 am   BACKBONE|DICT|INTERRES
   131   66   68 2    
   132   67  132 1    
   133   67  133 1    
   134   69   70 1    
   135   69  134 1    
   136   69  135 1    
   137   70   71 1    
   138   71  136 1    
   139   71  137 1    
@<TRIPOS>SUBSTRUCTURE
     1 UNK         1 GROUP             0       ****    0 ROOT    
