@<TRIPOS>MOLECULE
3R136
137   139    1
SMALL
USER_CHARGES


@<TRIPOS>ATOM
      1 CA         27.7276   24.7782   -2.7256 C.3       0 UNK        -0.1979 
      2 C          28.2844   24.7601   -1.3120 C.2       0 UNK         0.4864 
      3 O          27.5474   25.0072   -0.3550 O.2       0 UNK        -0.5359 
      4 N          29.5769   24.4562   -1.1433 N.am      1 UNK        -0.4318 
      5 CA         30.2690   24.3790    0.1535 C.3       1 UNK         0.0824 
      6 C6         31.7924   24.6029   -0.0047 C.3       12 UNK        -0.0944 
      7 S7         32.1421   26.3776   -0.2534 S.3       12 UNK        -0.2672 
      8 C8         32.7442   26.8421    1.4016 C.3       12 UNK         0.0333 
      9 C9         31.6353   26.8377    2.4490 C.ar      12 UNK        -0.0807 
     10 C10        31.3940   25.7029    3.2315 C.ar      12 UNK        -0.0894 
     11 C11        30.3811   25.7055    4.1948 C.ar      12 UNK        -0.0804 
     12 C12        29.6111   26.8569    4.3792 C.ar      12 UNK        -0.0824 
     13 C13        29.8492   28.0018    3.6156 C.ar      12 UNK        -0.0762 
     14 C14        30.8599   27.9823    2.6506 C.ar      12 UNK        -0.0782 
     15 C15        29.0303   29.2609    3.8656 C.3       12 UNK         0.0230 
     16 S16        27.3343   29.1139    3.2208 S.3       12 UNK        -0.2608 
     17 C17        27.5253   29.7137    1.5074 C.3       12 UNK        -0.0989 
     18 CA         27.7871   28.5667    0.4959 C.3       5 UNK         0.0716 
     19 N          26.7433   27.5421    0.4706 N.am      5 UNK        -0.4135 
     20 C          25.4216   27.6819    0.2941 C.2       4 UNK         0.5031 
     21 O          24.8593   28.7380    0.0035 O.2       4 UNK        -0.5229 
     22 CA         24.5689   26.4200    0.5420 C.3       4 UNK         0.0329 
     23 CB         24.2824   25.6644   -0.7662 C.3       4 UNK        -0.2001 
     24 N          25.2085   25.5263    1.5203 N.am      4 UNK        -0.4303 
     25 C          25.1019   25.6914    2.8486 C.2       3 UNK         0.5044 
     26 O          24.2978   26.4704    3.3632 O.2       3 UNK        -0.5152 
     27 CA         26.0725   24.9275    3.7752 C.3       3 UNK         0.0319 
     28 CB         25.3547   24.2922    4.9853 C.3       3 UNK        -0.2001 
     29 N          26.9729   23.9714    3.1159 N.am      3 UNK        -0.4354 
     30 C          26.6841   22.7629    2.6062 C.2       2 UNK         0.4964 
     31 O          25.5527   22.2788    2.5710 O.2       2 UNK        -0.5047 
     32 CA         27.8744   22.0028    1.9922 C.3       2 UNK         0.0288 
     33 CB         27.4599   20.7479    1.2007 C.3       2 UNK        -0.2113 
     34 N          28.5724   22.9300    1.1135 N.am      2 UNK        -0.4145 
     35 C          29.8853   23.1181    0.9682 C.2       1 UNK         0.5006 
     36 O          30.7442   22.3889    1.4662 O.2       1 UNK        -0.5103 
     37 C          28.1069   29.0799   -0.9194 C.2       5 UNK         0.5055 
     38 O          27.5803   30.1109   -1.3423 O.2       5 UNK        -0.5220 
     39 N          28.9902   28.3533   -1.6221 N.am      6 UNK        -0.4450 
     40 CA         29.5701   28.7730   -2.9057 C.3       6 UNK         0.0367 
     41 CB         30.1699   27.5519   -3.6216 C.3       6 UNK        -0.1929 
     42 C          30.6371   29.8755   -2.7488 C.2       6 UNK         0.5070 
     43 O          30.8898   30.6161   -3.6993 O.2       6 UNK        -0.5237 
     44 N          31.2322   29.9643   -1.5560 N.am      7 UNK        -0.4739 
     45 CA         32.1435   31.0123   -1.1051 C.3       7 UNK         0.0276 
     46 CB         33.5684   30.4354   -1.0342 C.3       7 UNK        -0.1927 
     47 C          31.6646   31.4872    0.2748 C.2       7 UNK         0.5013 
     48 O          30.7563   30.8771    0.8422 O.2       7 UNK        -0.5193 
     49 N          32.2783   32.5488    0.8049 N.am      8 UNK        -0.4253 
     50 CA         31.9604   33.1039    2.1195 C.3       8 UNK         0.0242 
     51 CB         31.2645   34.4661    1.9373 C.3       8 UNK        -0.2000 
     52 C          33.2620   33.2304    2.9275 C.2       8 UNK         0.4948 
     53 O          33.9967   34.1934    2.7081 O.2       8 UNK        -0.5275 
     54 N          33.5930   32.2943    3.8258 N.am      9 UNK        -0.4246 
     55 CA         32.9490   31.0163    4.1276 C.3       9 UNK         0.0261 
     56 CB         31.8138   31.2121    5.1523 C.3       9 UNK        -0.1959 
     57 C          34.0302   30.1041    4.7223 C.2       9 UNK         0.5033 
     58 O          34.9563   30.6172    5.3581 O.2       9 UNK        -0.5390 
     59 N          33.8951   28.7852    4.5319 N.am      10 UNK        -0.4215 
     60 CA         34.7887   27.7925    5.1386 C.3       10 UNK         0.0240 
     61 CB         34.9905   26.5960    4.1949 C.3       10 UNK        -0.1982 
     62 C          34.2556   27.3301    6.5014 C.2       10 UNK         0.4970 
     63 O          35.0092   27.3342    7.4756 O.2       10 UNK        -0.4916 
     64 N          32.9757   26.9368    6.5445 N.am      11 UNK        -0.4279 
     65 CA         32.2901   26.4876    7.7640 C.3       11 UNK         0.1003 
     66 C          31.9711   27.6656    8.7239 C.2       11 UNK         0.5709 
     67 N          31.9583   27.4176   10.0266 N.am      11 UNK        -0.7358 
     68 O          31.6980   28.7871    8.2991 O.2       11 UNK        -0.4999 
     69 C69        31.0104   25.6705    7.4460 C.3       12 UNK        -0.0954 
     70 S70        31.3392   24.2397    6.3579 S.3       12 UNK        -0.2268 
     71 C71        30.1121   24.4624    5.0310 C.3       12 UNK         0.0203 
     72 H72        27.3223   25.7633   -2.9548 H         1 UNK         0.0888 
     73 H73        28.4892   24.5373   -3.4667 H         1 UNK         0.0888 
     74 H74        26.9230   24.0495   -2.8177 H         1 UNK         0.0888 
     75 H75        30.1418   24.2304   -1.9498 H         1 UNK         0.3017 
     76 H76        29.8925   25.2011    0.7669 H         1 UNK         0.0873 
     77 H77        32.3541   24.2564    0.8631 H         1 UNK         0.0745 
     78 H78        32.1838   24.0361   -0.8508 H         1 UNK         0.0745 
     79 H79        33.5481   26.1638    1.6884 H         1 UNK         0.0705 
     80 H80        33.1940   27.8341    1.3452 H         1 UNK         0.0705 
     81 H81        31.9926   24.8125    3.0954 H         1 UNK         0.1334 
     82 H82        28.8266   26.8697    5.1237 H         1 UNK         0.1417 
     83 H83        31.0485   28.8591    2.0546 H         1 UNK         0.1562 
     84 H84        29.5202   30.1385    3.4412 H         1 UNK         0.0748 
     85 H85        28.9752   29.4384    4.9406 H         1 UNK         0.0748 
     86 H86        28.3279   30.4502    1.4741 H         1 UNK         0.0940 
     87 H87        26.6219   30.2637    1.2395 H         1 UNK         0.0940 
     88 H88        28.6825   28.0490    0.8416 H         1 UNK         0.0703 
     89 H89        27.0811   26.5886    0.5505 H         1 UNK         0.3081 
     90 H90        23.6067   26.7514    0.9385 H         1 UNK         0.0719 
     91 H91        25.1917   25.3284   -1.2601 H         1 UNK         0.0809 
     92 H92        23.6560   24.7903   -0.5882 H         1 UNK         0.0809 
     93 H93        23.7515   26.3045   -1.4720 H         1 UNK         0.0809 
     94 H94        25.8878   24.8716    1.1576 H         1 UNK         0.2990 
     95 H95        26.7327   25.6988    4.1746 H         1 UNK         0.0690 
     96 H96        26.0610   23.7957    5.6507 H         1 UNK         0.0788 
     97 H97        24.6084   23.5596    4.6775 H         1 UNK         0.0788 
     98 H98        24.8366   25.0496    5.5748 H         1 UNK         0.0788 
     99 H99        27.9340   24.2756    3.0537 H         1 UNK         0.2993 
    100 H100       28.5305   21.7044    2.8129 H         1 UNK         0.0949 
    101 H101       26.9465   20.0317    1.8436 H         1 UNK         0.0767 
    102 H102       26.7866   20.9948    0.3789 H         1 UNK         0.0767 
    103 H103       28.3292   20.2418    0.7806 H         1 UNK         0.0767 
    104 H104       27.9796   23.6021    0.6274 H         1 UNK         0.3013 
    105 H105       29.3748   27.5158   -1.2091 H         1 UNK         0.3121 
    106 H106       28.7728   29.1777   -3.5331 H         1 UNK         0.0774 
    107 H107       29.4025   26.8210   -3.8696 H         1 UNK         0.0815 
    108 H108       30.6433   27.8442   -4.5601 H         1 UNK         0.0815 
    109 H109       30.9300   27.0571   -3.0161 H         1 UNK         0.0815 
    110 H110       30.8966   29.3676   -0.8129 H         1 UNK         0.2987 
    111 H111       32.1178   31.8635   -1.7890 H         1 UNK         0.0949 
    112 H112       34.2902   31.1926   -0.7263 H         1 UNK         0.0806 
    113 H113       33.6352   29.6102   -0.3246 H         1 UNK         0.0806 
    114 H114       33.8896   30.0623   -2.0069 H         1 UNK         0.0806 
    115 H115       33.0479   32.9832    0.3135 H         1 UNK         0.3010 
    116 H116       31.2618   32.4642    2.6561 H         1 UNK         0.0829 
    117 H117       30.3145   34.3549    1.4143 H         1 UNK         0.0813 
    118 H118       31.0512   34.9266    2.9028 H         1 UNK         0.0813 
    119 H119       31.8773   35.1663    1.3682 H         1 UNK         0.0813 
    120 H120       34.4693   32.3965    4.3249 H         1 UNK         0.3038 
    121 H121       32.5675   30.5640    3.2105 H         1 UNK         0.0769 
    122 H122       32.1828   31.6710    6.0707 H         1 UNK         0.0811 
    123 H123       31.3720   30.2550    5.4325 H         1 UNK         0.0811 
    124 H124       31.0089   31.8402    4.7747 H         1 UNK         0.0811 
    125 H125       33.1012   28.4381    4.0144 H         1 UNK         0.3204 
    126 H126       35.7727   28.2384    5.3013 H         1 UNK         0.0748 
    127 H127       35.3595   26.9168    3.2207 H         1 UNK         0.0771 
    128 H128       35.7270   25.9036    4.6051 H         1 UNK         0.0771 
    129 H129       34.0721   26.0305    4.0454 H         1 UNK         0.0771 
    130 H130       32.4131   26.9563    5.7086 H         1 UNK         0.2980 
    131 H131       32.9769   25.8193    8.2879 H         1 UNK         0.0545 
    132 H132       32.1685   26.4994   10.3860 H         1 UNK         0.3459 
    133 H133       31.7388   28.1667   10.6644 H         1 UNK         0.3459 
    134 H134       30.5738   25.2826    8.3680 H         1 UNK         0.0616 
    135 H135       30.2483   26.3121    7.0044 H         1 UNK         0.0616 
    136 H136       29.1131   24.4960    5.4689 H         1 UNK         0.0634 
    137 H137       30.1332   23.5825    4.3861 H         1 UNK         0.0634 
@<TRIPOS>BOND
     1    1    2 1    
     2    1   72 1    
     3    1   73 1    
     4    1   74 1    
     5    2    3 2    
     6    2    4 am   BACKBONE|DICT|INTERRES
     7    4    5 1    
     8    4   75 1    
     9    5    6 1    
    10    5   35 1    
    11    5   76 1    
    12    6    7 1    
    13    6   77 1    
    14    6   78 1    
    15    7    8 1    
    16    8    9 1    
    17    8   79 1    
    18    8   80 1    
    19    9   10 ar   
    20    9   14 ar   
    21   10   11 ar   
    22   10   81 1    
    23   11   12 ar   
    24   11   71 1    
    25   12   13 ar   
    26   12   82 1    
    27   13   14 ar   
    28   13   15 1    
    29   14   83 1    
    30   15   16 1    
    31   15   84 1    
    32   15   85 1    
    33   16   17 1    
    34   17   18 1    
    35   17   86 1    
    36   17   87 1    
    37   18   19 1    
    38   18   37 1    
    39   18   88 1    
    40   19   20 am   BACKBONE|DICT|INTERRES
    41   19   89 1    
    42   20   21 2    
    43   20   22 1    
    44   22   23 1    
    45   22   24 1    
    46   22   90 1    
    47   23   91 1    
    48   23   92 1    
    49   23   93 1    
    50   24   25 am   BACKBONE|DICT|INTERRES
    51   24   94 1    
    52   25   26 2    
    53   25   27 1    
    54   27   28 1    
    55   27   29 1    
    56   27   95 1    
    57   28   96 1    
    58   28   97 1    
    59   28   98 1    
    60   29   30 am   BACKBONE|DICT|INTERRES
    61   29   99 1    
    62   30   31 2    
    63   30   32 1    
    64   32   33 1    
    65   32   34 1    
    66   32  100 1    
    67   33  101 1    
    68   33  102 1    
    69   33  103 1    
    70   34   35 am   BACKBONE|DICT|INTERRES
    71   34  104 1    
    72   35   36 2    
    73   37   38 2    
    74   37   39 am   BACKBONE|DICT|INTERRES
    75   39   40 1    
    76   39  105 1    
    77   40   41 1    
    78   40   42 1    
    79   40  106 1    
    80   41  107 1    
    81   41  108 1    
    82   41  109 1    
    83   42   43 2    
    84   42   44 am   BACKBONE|DICT|INTERRES
    85   44   45 1    
    86   44  110 1    
    87   45   46 1    
    88   45   47 1    
    89   45  111 1    
    90   46  112 1    
    91   46  113 1    
    92   46  114 1    
    93   47   48 2    
    94   47   49 am   BACKBONE|DICT|INTERRES
    95   49   50 1    
    96   49  115 1    
    97   50   51 1    
    98   50   52 1    
    99   50  116 1    
   100   51  117 1    
   101   51  118 1    
   102   51  119 1    
   103   52   53 2    
   104   52   54 am   BACKBONE|DICT|INTERRES
   105   54   55 1    
   106   54  120 1    
   107   55   56 1    
   108   55   57 1    
   109   55  121 1    
   110   56  122 1    
   111   56  123 1    
   112   56  124 1    
   113   57   58 2    
   114   57   59 am   BACKBONE|DICT|INTERRES
   115   59   60 1    
   116   59  125 1    
   117   60   61 1    
   118   60   62 1    
   119   60  126 1    
   120   61  127 1    
   121   61  128 1    
   122   61  129 1    
   123   62   63 2    
   124   62   64 am   BACKBONE|DICT|INTERRES
   125   64   65 1    
   126   64  130 1    
   127   65   66 1    
   128   65   69 1    
   129   65  131 1    
   130   66   67 am   BACKBONE|DICT|INTERRES
   131   66   68 2    
   132   67  132 1    
   133   67  133 1    
   134   69   70 1    
   135   69  134 1    
   136   69  135 1    
   137   70   71 1    
   138   71  136 1    
   139   71  137 1    
@<TRIPOS>SUBSTRUCTURE
     1 UNK         1 GROUP             0       ****    0 ROOT    
