@<TRIPOS>MOLECULE
3R136
137   139    1
SMALL
USER_CHARGES


@<TRIPOS>ATOM
      1 CA         27.8905   16.4984   -0.5666 C.3       0 UNK        -0.1979 
      2 C          28.0772   17.9840   -0.8383 C.2       0 UNK         0.4864 
      3 O          27.9450   18.4174   -1.9843 O.2       0 UNK        -0.5359 
      4 N          28.3909   18.7654    0.2036 N.am      1 UNK        -0.4318 
      5 CA         28.5415   20.2213    0.1393 C.3       1 UNK         0.0824 
      6 C6         29.2863   20.7552    1.3889 C.3       12 UNK        -0.0944 
      7 S7         29.8162   22.4953    1.2337 S.3       12 UNK        -0.2672 
      8 C8         30.8506   22.6396    2.7190 C.3       12 UNK         0.0333 
      9 C9         31.2410   24.0841    2.9896 C.ar      12 UNK        -0.0807 
     10 C10        32.2321   24.6993    2.2215 C.ar      12 UNK        -0.0894 
     11 C11        32.6336   26.0117    2.4895 C.ar      12 UNK        -0.0804 
     12 C12        32.0223   26.7128    3.5369 C.ar      12 UNK        -0.0824 
     13 C13        31.0394   26.1010    4.3256 C.ar      12 UNK        -0.0762 
     14 C14        30.6437   24.7921    4.0353 C.ar      12 UNK        -0.0782 
     15 C15        30.4456   26.8098    5.5365 C.3       12 UNK         0.0230 
     16 S16        28.9953   27.8243    5.1172 S.3       12 UNK        -0.2608 
     17 C17        29.7935   29.3587    4.5288 C.3       12 UNK        -0.0989 
     18 CA         29.3259   29.8120    3.1261 C.3       5 UNK         0.0716 
     19 N          29.3547   28.7154    2.1516 N.am      5 UNK        -0.4135 
     20 C          29.1567   28.8168    0.8306 C.2       4 UNK         0.5031 
     21 O          29.0038   29.8869    0.2426 O.2       4 UNK        -0.5229 
     22 CA         29.0169   27.5023    0.0409 C.3       4 UNK         0.0329 
     23 CB         30.3539   27.1135   -0.6061 C.3       4 UNK        -0.2001 
     24 N          28.5044   26.3618    0.8127 N.am      4 UNK        -0.4303 
     25 C          27.3592   26.3337    1.5119 C.2       3 UNK         0.5044 
     26 O          26.6174   27.3068    1.6558 O.2       3 UNK        -0.5152 
     27 CA         26.9925   24.9722    2.1245 C.3       3 UNK         0.0319 
     28 CB         25.7861   25.0380    3.0847 C.3       3 UNK        -0.2001 
     29 N          26.7984   23.9661    1.0732 N.am      3 UNK        -0.4354 
     30 C          25.8659   23.9521    0.1046 C.2       2 UNK         0.4964 
     31 O          24.9390   24.7589    0.0305 O.2       2 UNK        -0.5047 
     32 CA         25.9938   22.8764   -0.9953 C.3       2 UNK         0.0288 
     33 CB         26.1004   23.5309   -2.3847 C.3       2 UNK        -0.2113 
     34 N          27.1491   21.9940   -0.8106 N.am      2 UNK        -0.4145 
     35 C          27.1680   20.9042   -0.0330 C.2       1 UNK         0.5006 
     36 O          26.1834   20.4739    0.5739 O.2       1 UNK        -0.5103 
     37 C          27.9903   30.5913    3.1953 C.2       5 UNK         0.5055 
     38 O          27.9612   31.6636    3.7994 O.2       5 UNK        -0.5220 
     39 N          26.9219   30.1016    2.5475 N.am      6 UNK        -0.4450 
     40 CA         25.7039   30.8692    2.2718 C.3       6 UNK         0.0367 
     41 CB         24.6521   29.9415    1.6438 C.3       6 UNK        -0.1929 
     42 C          25.9415   32.1003    1.3693 C.2       6 UNK         0.5070 
     43 O          25.1415   33.0353    1.4202 O.2       6 UNK        -0.5237 
     44 N          27.0224   32.0955    0.5747 N.am      7 UNK        -0.4739 
     45 CA         27.4292   33.1984   -0.2977 C.3       7 UNK         0.0276 
     46 CB         26.7747   33.0270   -1.6830 C.3       7 UNK        -0.1927 
     47 C          28.9637   33.3145   -0.3678 C.2       7 UNK         0.5013 
     48 O          29.5009   33.6504   -1.4252 O.2       7 UNK        -0.5193 
     49 N          29.6503   33.0365    0.7480 N.am      8 UNK        -0.4253 
     50 CA         31.1082   33.0602    0.8804 C.3       8 UNK         0.0242 
     51 CB         31.7290   31.8122    0.2132 C.3       8 UNK        -0.2000 
     52 C          31.4789   33.1448    2.3684 C.2       8 UNK         0.4948 
     53 O          30.5913   33.2389    3.2187 O.2       8 UNK        -0.5275 
     54 N          32.7834   33.0946    2.6607 N.am      9 UNK        -0.4246 
     55 CA         33.3223   32.9395    4.0139 C.3       9 UNK         0.0261 
     56 CB         34.7915   33.3964    4.0133 C.3       9 UNK        -0.1959 
     57 C          33.2135   31.4788    4.4910 C.2       9 UNK         0.5033 
     58 O          33.0374   30.5732    3.6721 O.2       9 UNK        -0.5390 
     59 N          33.3539   31.2700    5.8069 N.am      10 UNK        -0.4215 
     60 CA         33.4532   29.9436    6.4209 C.3       10 UNK         0.0240 
     61 CB         33.2800   30.0653    7.9433 C.3       10 UNK        -0.1982 
     62 C          34.7968   29.2820    6.0704 C.2       10 UNK         0.4970 
     63 O          35.8378   29.9318    6.1950 O.2       10 UNK        -0.4916 
     64 N          34.7433   28.0154    5.6454 N.am      11 UNK        -0.4279 
     65 CA         35.9003   27.2487    5.1489 C.3       11 UNK         0.1003 
     66 C          36.5191   26.2910    6.2071 C.2       11 UNK         0.5709 
     67 N          36.0127   26.2354    7.4337 N.am      11 UNK        -0.7358 
     68 O          37.4901   25.5958    5.9171 O.2       11 UNK        -0.4999 
     69 C69        35.5688   26.5077    3.8237 C.3       12 UNK        -0.0954 
     70 S70        34.9452   27.6525    2.5424 S.3       12 UNK        -0.2268 
     71 C71        33.7313   26.6401    1.6307 C.3       12 UNK         0.0203 
     72 H72        28.0491   16.2526    0.4833 H         1 UNK         0.0888 
     73 H73        26.8805   16.1919   -0.8375 H         1 UNK         0.0888 
     74 H74        28.5947   15.9167   -1.1609 H         1 UNK         0.0888 
     75 H75        28.4545   18.3575    1.1254 H         1 UNK         0.3017 
     76 H76        29.1513   20.4435   -0.7398 H         1 UNK         0.0873 
     77 H77        28.6720   20.6479    2.2856 H         1 UNK         0.0745 
     78 H78        30.1820   20.1557    1.5620 H         1 UNK         0.0745 
     79 H79        30.3146   22.2242    3.5741 H         1 UNK         0.0705 
     80 H80        31.7490   22.0331    2.5941 H         1 UNK         0.0705 
     81 H81        32.6970   24.1462    1.4165 H         1 UNK         0.1334 
     82 H82        32.3383   27.7246    3.7474 H         1 UNK         0.1417 
     83 H83        29.8893   24.3133    4.6452 H         1 UNK         0.1562 
     84 H84        31.2006   27.4202    6.0320 H         1 UNK         0.0748 
     85 H85        30.1384   26.0711    6.2785 H         1 UNK         0.0748 
     86 H86        30.8710   29.2182    4.4989 H         1 UNK         0.0940 
     87 H87        29.6412   30.1433    5.2731 H         1 UNK         0.0940 
     88 H88        30.0580   30.5391    2.7722 H         1 UNK         0.0703 
     89 H89        29.4391   27.7909    2.5494 H         1 UNK         0.3081 
     90 H90        28.2974   27.6931   -0.7580 H         1 UNK         0.0719 
     91 H91        30.2306   26.2874   -1.3067 H         1 UNK         0.0809 
     92 H92        31.0848   26.8107    0.1421 H         1 UNK         0.0809 
     93 H93        30.7801   27.9491   -1.1637 H         1 UNK         0.0809 
     94 H94        29.0471   25.5112    0.7597 H         1 UNK         0.2990 
     95 H95        27.8548   24.6493    2.7101 H         1 UNK         0.0690 
     96 H96        25.5674   24.0603    3.5136 H         1 UNK         0.0788 
     97 H97        24.8839   25.3970    2.5888 H         1 UNK         0.0788 
     98 H98        25.9901   25.7187    3.9123 H         1 UNK         0.0788 
     99 H99        27.5193   23.2586    1.0254 H         1 UNK         0.2993 
    100 H100       25.0794   22.2793   -0.9684 H         1 UNK         0.0949 
    101 H101       26.9813   24.1694   -2.4639 H         1 UNK         0.0767 
    102 H102       26.1563   22.7803   -3.1735 H         1 UNK         0.0767 
    103 H103       25.2283   24.1517   -2.5950 H         1 UNK         0.0767 
    104 H104       28.0072   22.2812   -1.2608 H         1 UNK         0.3013 
    105 H105       26.9759   29.1758    2.1300 H         1 UNK         0.3121 
    106 H106       25.3155   31.2327    3.2254 H         1 UNK         0.0774 
    107 H107       23.7210   30.4768    1.4530 H         1 UNK         0.0815 
    108 H108       24.9950   29.5309    0.6931 H         1 UNK         0.0815 
    109 H109       24.4165   29.1052    2.3025 H         1 UNK         0.0815 
    110 H110       27.6388   31.2852    0.5718 H         1 UNK         0.2987 
    111 H111       27.0821   34.1422    0.1287 H         1 UNK         0.0949 
    112 H112       25.6880   32.9865   -1.6072 H         1 UNK         0.0806 
    113 H113       27.0190   33.8617   -2.3413 H         1 UNK         0.0806 
    114 H114       27.1116   32.1123   -2.1723 H         1 UNK         0.0806 
    115 H115       29.1554   32.8445    1.6115 H         1 UNK         0.3010 
    116 H116       31.4871   33.9604    0.3920 H         1 UNK         0.0829 
    117 H117       31.3733   31.6785   -0.8084 H         1 UNK         0.0813 
    118 H118       32.8153   31.8863    0.1613 H         1 UNK         0.0813 
    119 H119       31.4934   30.9025    0.7662 H         1 UNK         0.0813 
    120 H120       33.4418   32.9773    1.9047 H         1 UNK         0.3038 
    121 H121       32.7544   33.5735    4.6985 H         1 UNK         0.0769 
    122 H122       35.4062   32.7766    3.3588 H         1 UNK         0.0811 
    123 H123       35.2242   33.3389    5.0129 H         1 UNK         0.0811 
    124 H124       34.8855   34.4308    3.6820 H         1 UNK         0.0811 
    125 H125       33.5350   32.0602    6.4090 H         1 UNK         0.3204 
    126 H126       32.6408   29.3279    6.0342 H         1 UNK         0.0748 
    127 H127       33.3228   29.0855    8.4208 H         1 UNK         0.0771 
    128 H128       34.0611   30.6808    8.3919 H         1 UNK         0.0771 
    129 H129       32.3162   30.5064    8.1988 H         1 UNK         0.0771 
    130 H130       33.8556   27.5405    5.5969 H         1 UNK         0.2980 
    131 H131       36.7036   27.9489    4.9127 H         1 UNK         0.0545 
    132 H132       35.2294   26.8128    7.6916 H         1 UNK         0.3459 
    133 H133       36.4286   25.6153    8.1107 H         1 UNK         0.3459 
    134 H134       36.4573   26.0169    3.4229 H         1 UNK         0.0616 
    135 H135       34.8403   25.7170    4.0072 H         1 UNK         0.0616 
    136 H136       33.2666   27.2720    0.8740 H         1 UNK         0.0634 
    137 H137       34.2809   25.8670    1.0915 H         1 UNK         0.0634 
@<TRIPOS>BOND
     1    1    2 1    
     2    1   72 1    
     3    1   73 1    
     4    1   74 1    
     5    2    3 2    
     6    2    4 am   BACKBONE|DICT|INTERRES
     7    4    5 1    
     8    4   75 1    
     9    5    6 1    
    10    5   35 1    
    11    5   76 1    
    12    6    7 1    
    13    6   77 1    
    14    6   78 1    
    15    7    8 1    
    16    8    9 1    
    17    8   79 1    
    18    8   80 1    
    19    9   10 ar   
    20    9   14 ar   
    21   10   11 ar   
    22   10   81 1    
    23   11   12 ar   
    24   11   71 1    
    25   12   13 ar   
    26   12   82 1    
    27   13   14 ar   
    28   13   15 1    
    29   14   83 1    
    30   15   16 1    
    31   15   84 1    
    32   15   85 1    
    33   16   17 1    
    34   17   18 1    
    35   17   86 1    
    36   17   87 1    
    37   18   19 1    
    38   18   37 1    
    39   18   88 1    
    40   19   20 am   BACKBONE|DICT|INTERRES
    41   19   89 1    
    42   20   21 2    
    43   20   22 1    
    44   22   23 1    
    45   22   24 1    
    46   22   90 1    
    47   23   91 1    
    48   23   92 1    
    49   23   93 1    
    50   24   25 am   BACKBONE|DICT|INTERRES
    51   24   94 1    
    52   25   26 2    
    53   25   27 1    
    54   27   28 1    
    55   27   29 1    
    56   27   95 1    
    57   28   96 1    
    58   28   97 1    
    59   28   98 1    
    60   29   30 am   BACKBONE|DICT|INTERRES
    61   29   99 1    
    62   30   31 2    
    63   30   32 1    
    64   32   33 1    
    65   32   34 1    
    66   32  100 1    
    67   33  101 1    
    68   33  102 1    
    69   33  103 1    
    70   34   35 am   BACKBONE|DICT|INTERRES
    71   34  104 1    
    72   35   36 2    
    73   37   38 2    
    74   37   39 am   BACKBONE|DICT|INTERRES
    75   39   40 1    
    76   39  105 1    
    77   40   41 1    
    78   40   42 1    
    79   40  106 1    
    80   41  107 1    
    81   41  108 1    
    82   41  109 1    
    83   42   43 2    
    84   42   44 am   BACKBONE|DICT|INTERRES
    85   44   45 1    
    86   44  110 1    
    87   45   46 1    
    88   45   47 1    
    89   45  111 1    
    90   46  112 1    
    91   46  113 1    
    92   46  114 1    
    93   47   48 2    
    94   47   49 am   BACKBONE|DICT|INTERRES
    95   49   50 1    
    96   49  115 1    
    97   50   51 1    
    98   50   52 1    
    99   50  116 1    
   100   51  117 1    
   101   51  118 1    
   102   51  119 1    
   103   52   53 2    
   104   52   54 am   BACKBONE|DICT|INTERRES
   105   54   55 1    
   106   54  120 1    
   107   55   56 1    
   108   55   57 1    
   109   55  121 1    
   110   56  122 1    
   111   56  123 1    
   112   56  124 1    
   113   57   58 2    
   114   57   59 am   BACKBONE|DICT|INTERRES
   115   59   60 1    
   116   59  125 1    
   117   60   61 1    
   118   60   62 1    
   119   60  126 1    
   120   61  127 1    
   121   61  128 1    
   122   61  129 1    
   123   62   63 2    
   124   62   64 am   BACKBONE|DICT|INTERRES
   125   64   65 1    
   126   64  130 1    
   127   65   66 1    
   128   65   69 1    
   129   65  131 1    
   130   66   67 am   BACKBONE|DICT|INTERRES
   131   66   68 2    
   132   67  132 1    
   133   67  133 1    
   134   69   70 1    
   135   69  134 1    
   136   69  135 1    
   137   70   71 1    
   138   71  136 1    
   139   71  137 1    
@<TRIPOS>SUBSTRUCTURE
     1 UNK         1 GROUP             0       ****    0 ROOT    
