@<TRIPOS>MOLECULE
3R136
137   139    1
SMALL
USER_CHARGES


@<TRIPOS>ATOM
      1 CA         30.3085   26.5872    3.5370 C.3       0 UNK        -0.1979 
      2 C          29.3020   25.4800    3.8116 C.2       0 UNK         0.4864 
      3 O          28.7033   25.4471    4.8870 O.2       0 UNK        -0.5359 
      4 N          29.1066   24.5763    2.8426 N.am      1 UNK        -0.4318 
      5 CA         28.1957   23.4256    2.9265 C.3       1 UNK         0.0824 
      6 C6         28.5525   22.3513    1.8664 C.3       12 UNK        -0.0944 
      7 S7         30.0820   21.4590    2.2969 S.3       12 UNK        -0.2672 
      8 C8         31.0642   21.5920    0.7694 C.3       12 UNK         0.0333 
      9 C9         31.8504   22.8935    0.6905 C.ar      12 UNK        -0.0807 
     10 C10        32.8189   23.1818    1.6571 C.ar      12 UNK        -0.0894 
     11 C11        33.5879   24.3440    1.5676 C.ar      12 UNK        -0.0804 
     12 C12        33.3946   25.2164    0.4934 C.ar      12 UNK        -0.0824 
     13 C13        32.4282   24.9431   -0.4805 C.ar      12 UNK        -0.0762 
     14 C14        31.6550   23.7811   -0.3729 C.ar      12 UNK        -0.0782 
     15 C15        32.2321   25.8851   -1.6649 C.3       12 UNK         0.0230 
     16 S16        32.0262   27.6346   -1.1852 S.3       12 UNK        -0.2608 
     17 C17        30.5895   27.5588   -0.0678 C.3       12 UNK        -0.0989 
     18 CA         29.2567   27.9018   -0.7706 C.3       5 UNK         0.0716 
     19 N          28.8766   26.9021   -1.7623 N.am      5 UNK        -0.4135 
     20 C          28.6440   27.1313   -3.0592 C.2       4 UNK         0.5031 
     21 O          28.9022   28.1886   -3.6357 O.2       4 UNK        -0.5229 
     22 CA         27.9694   25.9876   -3.8421 C.3       4 UNK         0.0329 
     23 CB         29.0264   25.0899   -4.5059 C.3       4 UNK        -0.2001 
     24 N          27.0789   25.1618   -3.0148 N.am      4 UNK        -0.4303 
     25 C          25.9663   25.6022   -2.4072 C.2       3 UNK         0.5044 
     26 O          25.5289   26.7471   -2.5281 O.2       3 UNK        -0.5152 
     27 CA         25.2395   24.6297   -1.4696 C.3       3 UNK         0.0319 
     28 CB         25.7209   23.1646   -1.5544 C.3       3 UNK        -0.2001 
     29 N          25.4190   25.1254   -0.1102 N.am      3 UNK        -0.4354 
     30 C          24.5366   25.0268    0.8892 C.2       2 UNK         0.4964 
     31 O          23.4217   24.5120    0.7840 O.2       2 UNK        -0.5047 
     32 CA         25.0255   25.5816    2.2388 C.3       2 UNK         0.0288 
     33 CB         24.0268   25.3832    3.4001 C.3       2 UNK        -0.2113 
     34 N          26.3636   25.0616    2.5551 N.am      2 UNK        -0.4145 
     35 C          26.6942   23.7925    2.8448 C.2       1 UNK         0.5006 
     36 O          25.8656   22.8989    3.0288 O.2       1 UNK        -0.5103 
     37 C          28.1235   27.9101    0.2625 C.2       5 UNK         0.5055 
     38 O          27.6939   26.8301    0.6835 O.2       5 UNK        -0.5220 
     39 N          27.6750   29.1034    0.6637 N.am      6 UNK        -0.4450 
     40 CA         26.6095   29.2929    1.6522 C.3       6 UNK         0.0367 
     41 CB         25.2432   29.3098    0.9380 C.3       6 UNK        -0.1929 
     42 C          26.8193   30.5454    2.5222 C.2       6 UNK         0.5070 
     43 O          25.9167   30.9035    3.2801 O.2       6 UNK        -0.5237 
     44 N          27.9855   31.1970    2.4108 N.am      7 UNK        -0.4739 
     45 CA         28.3629   32.3456    3.2369 C.3       7 UNK         0.0276 
     46 CB         29.3691   33.2167    2.4657 C.3       7 UNK        -0.1927 
     47 C          28.9564   31.8791    4.5756 C.2       7 UNK         0.5013 
     48 O          29.5208   30.7831    4.6515 O.2       7 UNK        -0.5193 
     49 N          28.8414   32.7313    5.6020 N.am      8 UNK        -0.4253 
     50 CA         29.3929   32.4978    6.9374 C.3       8 UNK         0.0242 
     51 CB         28.9048   33.5979    7.8950 C.3       8 UNK        -0.2000 
     52 C          30.9290   32.4414    6.9018 C.2       8 UNK         0.4948 
     53 O          31.5576   33.4025    6.4530 O.2       8 UNK        -0.5275 
     54 N          31.4869   31.3136    7.3646 N.am      9 UNK        -0.4246 
     55 CA         32.9190   30.9925    7.4226 C.3       9 UNK         0.0261 
     56 CB         33.6434   31.9027    8.4386 C.3       9 UNK        -0.1959 
     57 C          33.6163   30.9650    6.0452 C.2       9 UNK         0.5033 
     58 O          34.8144   31.2469    5.9684 O.2       9 UNK        -0.5390 
     59 N          32.8776   30.5897    4.9866 N.am      10 UNK        -0.4215 
     60 CA         33.3610   30.4963    3.5994 C.3       10 UNK         0.0240 
     61 CB         32.2153   30.0289    2.6874 C.3       10 UNK        -0.1982 
     62 C          34.5794   29.5752    3.4039 C.2       10 UNK         0.4970 
     63 O          35.3957   29.8327    2.5184 O.2       10 UNK        -0.4916 
     64 N          34.6771   28.5319    4.2352 N.am      11 UNK        -0.4279 
     65 CA         35.7933   27.5774    4.2653 C.3       11 UNK         0.1003 
     66 C          37.0761   28.1129    4.9680 C.2       11 UNK         0.5709 
     67 N          37.0682   29.2905    5.5840 N.am      11 UNK        -0.7358 
     68 O          38.1082   27.4465    4.9447 O.2       11 UNK        -0.4999 
     69 C69        35.3573   26.2056    4.8484 C.3       12 UNK        -0.0954 
     70 S70        33.8746   25.5310    4.0278 S.3       12 UNK        -0.2268 
     71 C71        34.6301   24.6563    2.6274 C.3       12 UNK         0.0203 
     72 H72        29.7934   27.4931    3.2183 H         1 UNK         0.0888 
     73 H73        30.8735   26.8161    4.4403 H         1 UNK         0.0888 
     74 H74        31.0226   26.2992    2.7655 H         1 UNK         0.0888 
     75 H75        29.6438   24.6408    1.9904 H         1 UNK         0.3017 
     76 H76        28.3248   22.9780    3.9146 H         1 UNK         0.0873 
     77 H77        28.6348   22.8005    0.8751 H         1 UNK         0.0745 
     78 H78        27.7713   21.5924    1.7872 H         1 UNK         0.0745 
     79 H79        31.7714   20.7618    0.7426 H         1 UNK         0.0705 
     80 H80        30.4153   21.4629   -0.0982 H         1 UNK         0.0705 
     81 H81        32.9742   22.4984    2.4811 H         1 UNK         0.1334 
     82 H82        33.9937   26.1138    0.4172 H         1 UNK         0.1417 
     83 H83        30.9173   23.5544   -1.1307 H         1 UNK         0.1562 
     84 H84        31.3701   25.5845   -2.2607 H         1 UNK         0.0748 
     85 H85        33.0989   25.8041   -2.3219 H         1 UNK         0.0748 
     86 H86        30.7820   28.2665    0.7401 H         1 UNK         0.0940 
     87 H87        30.5357   26.5777    0.4048 H         1 UNK         0.0940 
     88 H88        29.3324   28.8909   -1.2276 H         1 UNK         0.0703 
     89 H89        28.5754   26.0214   -1.3732 H         1 UNK         0.3081 
     90 H90        27.3646   26.4438   -4.6288 H         1 UNK         0.0719 
     91 H91        29.6336   24.5631   -3.7691 H         1 UNK         0.0809 
     92 H92        28.5634   24.3450   -5.1534 H         1 UNK         0.0809 
     93 H93        29.7041   25.6782   -5.1264 H         1 UNK         0.0809 
     94 H94        27.3496   24.1988   -2.8766 H         1 UNK         0.2990 
     95 H95        24.1815   24.6662   -1.7380 H         1 UNK         0.0690 
     96 H96        25.6338   22.7760   -2.5700 H         1 UNK         0.0788 
     97 H97        25.1133   22.5213   -0.9173 H         1 UNK         0.0788 
     98 H98        26.7571   23.0506   -1.2335 H         1 UNK         0.0788 
     99 H99        26.2798   25.6357    0.0696 H         1 UNK         0.2993 
    100 H100       25.1396   26.6554    2.0995 H         1 UNK         0.0949 
    101 H101       24.4256   25.7743    4.3361 H         1 UNK         0.0767 
    102 H102       23.0933   25.9101    3.1992 H         1 UNK         0.0767 
    103 H103       23.7749   24.3339    3.5539 H         1 UNK         0.0767 
    104 H104       27.1248   25.6999    2.3531 H         1 UNK         0.3013 
    105 H105       28.0432   29.9418    0.2355 H         1 UNK         0.3121 
    106 H106       26.6253   28.4567    2.3538 H         1 UNK         0.0774 
    107 H107       24.4234   29.3622    1.6556 H         1 UNK         0.0815 
    108 H108       25.0914   28.4114    0.3394 H         1 UNK         0.0815 
    109 H109       25.1516   30.1695    0.2735 H         1 UNK         0.0815 
    110 H110       28.7206   30.7892    1.8550 H         1 UNK         0.2987 
    111 H111       27.4750   32.9486    3.4420 H         1 UNK         0.0949 
    112 H112       29.6599   34.0904    3.0507 H         1 UNK         0.0806 
    113 H113       30.2817   32.6742    2.2215 H         1 UNK         0.0806 
    114 H114       28.9397   33.5836    1.5332 H         1 UNK         0.0806 
    115 H115       28.3996   33.6260    5.4475 H         1 UNK         0.3010 
    116 H116       29.0061   31.5407    7.2948 H         1 UNK         0.0829 
    117 H117       27.8168   33.6115    7.9646 H         1 UNK         0.0813 
    118 H118       29.2909   33.4363    8.9024 H         1 UNK         0.0813 
    119 H119       29.2341   34.5878    7.5758 H         1 UNK         0.0813 
    120 H120       30.8689   30.5827    7.6912 H         1 UNK         0.3038 
    121 H121       32.9818   29.9714    7.8020 H         1 UNK         0.0769 
    122 H122       34.6707   31.5728    8.5987 H         1 UNK         0.0811 
    123 H123       33.6853   32.9373    8.0966 H         1 UNK         0.0811 
    124 H124       33.1471   31.8895    9.4089 H         1 UNK         0.0811 
    125 H125       31.8926   30.4068    5.1321 H         1 UNK         0.3204 
    126 H126       33.6595   31.5007    3.2928 H         1 UNK         0.0748 
    127 H127       32.5402   29.9712    1.6473 H         1 UNK         0.0771 
    128 H128       31.8545   29.0406    2.9725 H         1 UNK         0.0771 
    129 H129       31.3723   30.7153    2.7228 H         1 UNK         0.0771 
    130 H130       33.9578   28.3941    4.9278 H         1 UNK         0.2980 
    131 H131       36.0905   27.4009    3.2301 H         1 UNK         0.0545 
    132 H132       37.9128   29.6155    6.0263 H         1 UNK         0.3459 
    133 H133       36.2360   29.8704    5.6070 H         1 UNK         0.3459 
    134 H134       35.1348   26.3013    5.9126 H         1 UNK         0.0616 
    135 H135       36.1646   25.4749    4.7705 H         1 UNK         0.0616 
    136 H136       35.4261   25.2658    2.1974 H         1 UNK         0.0634 
    137 H137       35.0993   23.7379    2.9834 H         1 UNK         0.0634 
@<TRIPOS>BOND
     1    1    2 1    
     2    1   72 1    
     3    1   73 1    
     4    1   74 1    
     5    2    3 2    
     6    2    4 am   BACKBONE|DICT|INTERRES
     7    4    5 1    
     8    4   75 1    
     9    5    6 1    
    10    5   35 1    
    11    5   76 1    
    12    6    7 1    
    13    6   77 1    
    14    6   78 1    
    15    7    8 1    
    16    8    9 1    
    17    8   79 1    
    18    8   80 1    
    19    9   10 ar   
    20    9   14 ar   
    21   10   11 ar   
    22   10   81 1    
    23   11   12 ar   
    24   11   71 1    
    25   12   13 ar   
    26   12   82 1    
    27   13   14 ar   
    28   13   15 1    
    29   14   83 1    
    30   15   16 1    
    31   15   84 1    
    32   15   85 1    
    33   16   17 1    
    34   17   18 1    
    35   17   86 1    
    36   17   87 1    
    37   18   19 1    
    38   18   37 1    
    39   18   88 1    
    40   19   20 am   BACKBONE|DICT|INTERRES
    41   19   89 1    
    42   20   21 2    
    43   20   22 1    
    44   22   23 1    
    45   22   24 1    
    46   22   90 1    
    47   23   91 1    
    48   23   92 1    
    49   23   93 1    
    50   24   25 am   BACKBONE|DICT|INTERRES
    51   24   94 1    
    52   25   26 2    
    53   25   27 1    
    54   27   28 1    
    55   27   29 1    
    56   27   95 1    
    57   28   96 1    
    58   28   97 1    
    59   28   98 1    
    60   29   30 am   BACKBONE|DICT|INTERRES
    61   29   99 1    
    62   30   31 2    
    63   30   32 1    
    64   32   33 1    
    65   32   34 1    
    66   32  100 1    
    67   33  101 1    
    68   33  102 1    
    69   33  103 1    
    70   34   35 am   BACKBONE|DICT|INTERRES
    71   34  104 1    
    72   35   36 2    
    73   37   38 2    
    74   37   39 am   BACKBONE|DICT|INTERRES
    75   39   40 1    
    76   39  105 1    
    77   40   41 1    
    78   40   42 1    
    79   40  106 1    
    80   41  107 1    
    81   41  108 1    
    82   41  109 1    
    83   42   43 2    
    84   42   44 am   BACKBONE|DICT|INTERRES
    85   44   45 1    
    86   44  110 1    
    87   45   46 1    
    88   45   47 1    
    89   45  111 1    
    90   46  112 1    
    91   46  113 1    
    92   46  114 1    
    93   47   48 2    
    94   47   49 am   BACKBONE|DICT|INTERRES
    95   49   50 1    
    96   49  115 1    
    97   50   51 1    
    98   50   52 1    
    99   50  116 1    
   100   51  117 1    
   101   51  118 1    
   102   51  119 1    
   103   52   53 2    
   104   52   54 am   BACKBONE|DICT|INTERRES
   105   54   55 1    
   106   54  120 1    
   107   55   56 1    
   108   55   57 1    
   109   55  121 1    
   110   56  122 1    
   111   56  123 1    
   112   56  124 1    
   113   57   58 2    
   114   57   59 am   BACKBONE|DICT|INTERRES
   115   59   60 1    
   116   59  125 1    
   117   60   61 1    
   118   60   62 1    
   119   60  126 1    
   120   61  127 1    
   121   61  128 1    
   122   61  129 1    
   123   62   63 2    
   124   62   64 am   BACKBONE|DICT|INTERRES
   125   64   65 1    
   126   64  130 1    
   127   65   66 1    
   128   65   69 1    
   129   65  131 1    
   130   66   67 am   BACKBONE|DICT|INTERRES
   131   66   68 2    
   132   67  132 1    
   133   67  133 1    
   134   69   70 1    
   135   69  134 1    
   136   69  135 1    
   137   70   71 1    
   138   71  136 1    
   139   71  137 1    
@<TRIPOS>SUBSTRUCTURE
     1 UNK         1 GROUP             0       ****    0 ROOT    
