@<TRIPOS>MOLECULE
3R136
137   139    1
SMALL
USER_CHARGES


@<TRIPOS>ATOM
      1 CA         27.4246   18.4796   -2.2824 C.3       0 UNK        -0.1979 
      2 C          28.3673   19.6394   -1.9967 C.2       0 UNK         0.4864 
      3 O          29.3778   19.7904   -2.6858 O.2       0 UNK        -0.5359 
      4 N          28.0503   20.4523   -0.9811 N.am      1 UNK        -0.4318 
      5 CA         28.8134   21.6420   -0.5895 C.3       1 UNK         0.0824 
      6 C6         28.4066   22.1565    0.8149 C.3       12 UNK        -0.0944 
      7 S7         28.5205   20.8944    2.1276 S.3       12 UNK        -0.2672 
      8 C8         30.3048   20.8739    2.4915 C.3       12 UNK         0.0333 
      9 C9         30.7990   22.1836    3.0898 C.ar      12 UNK        -0.0807 
     10 C10        31.5313   23.0823    2.3093 C.ar      12 UNK        -0.0894 
     11 C11        32.0240   24.2672    2.8626 C.ar      12 UNK        -0.0804 
     12 C12        31.7818   24.5502    4.2115 C.ar      12 UNK        -0.0824 
     13 C13        31.0363   23.6679    4.9988 C.ar      12 UNK        -0.0762 
     14 C14        30.5524   22.4834    4.4326 C.ar      12 UNK        -0.0782 
     15 C15        30.7778   23.9683    6.4689 C.3       12 UNK         0.0230 
     16 S16        29.0155   24.2988    6.7822 S.3       12 UNK        -0.2608 
     17 C17        28.9433   26.1232    6.8688 C.3       12 UNK        -0.0989 
     18 CA         28.9457   26.8579    5.4963 C.3       5 UNK         0.0716 
     19 N          28.0482   26.2545    4.5008 N.am      5 UNK        -0.4135 
     20 C          26.7090   26.2123    4.5326 C.2       4 UNK         0.5031 
     21 O          26.0255   26.6873    5.4419 O.2       4 UNK        -0.5229 
     22 CA         26.0210   25.5429    3.3240 C.3       4 UNK         0.0329 
     23 CB         24.4889   25.4814    3.4738 C.3       4 UNK        -0.2001 
     24 N          26.3439   26.1958    2.0489 N.am      4 UNK        -0.4303 
     25 C          27.5051   26.0694    1.3968 C.2       3 UNK         0.5044 
     26 O          28.4680   25.4397    1.8417 O.2       3 UNK        -0.5152 
     27 CA         27.6210   26.7521    0.0304 C.3       3 UNK         0.0319 
     28 CB         28.0711   28.2163    0.1612 C.3       3 UNK        -0.2001 
     29 N          28.5979   25.9889   -0.7330 N.am      3 UNK        -0.4354 
     30 C          28.6785   25.8914   -2.0631 C.2       2 UNK         0.4964 
     31 O          28.0077   26.5625   -2.8480 O.2       2 UNK        -0.5047 
     32 CA         29.6476   24.8242   -2.6062 C.3       2 UNK         0.0288 
     33 CB         31.0685   25.3956   -2.7417 C.3       2 UNK        -0.2113 
     34 N          29.6810   23.6150   -1.7724 N.am      2 UNK        -0.4145 
     35 C          28.6465   22.7724   -1.6263 C.2       1 UNK         0.5006 
     36 O          27.5784   22.8903   -2.2343 O.2       1 UNK        -0.5103 
     37 C          28.6773   28.3765    5.6484 C.2       5 UNK         0.5055 
     38 O          28.6672   28.8977    6.7661 O.2       5 UNK        -0.5220 
     39 N          28.4030   29.0485    4.5240 N.am      6 UNK        -0.4450 
     40 CA         27.9036   30.4180    4.4479 C.3       6 UNK         0.0367 
     41 CB         26.3677   30.3997    4.5894 C.3       6 UNK        -0.1929 
     42 C          28.3519   31.0473    3.1216 C.2       6 UNK         0.5070 
     43 O          29.0969   30.4169    2.3704 O.2       6 UNK        -0.5237 
     44 N          27.8912   32.2779    2.8634 N.am      7 UNK        -0.4739 
     45 CA         28.2187   33.1128    1.7014 C.3       7 UNK         0.0276 
     46 CB         27.7723   32.4424    0.3793 C.3       7 UNK        -0.1927 
     47 C          29.6916   33.5685    1.7277 C.2       7 UNK         0.5013 
     48 O          30.1908   33.9069    2.8052 O.2       7 UNK        -0.5193 
     49 N          30.3435   33.6136    0.5558 N.am      8 UNK        -0.4253 
     50 CA         31.7118   34.0953    0.3367 C.3       8 UNK         0.0242 
     51 CB         32.0943   33.8833   -1.1377 C.3       8 UNK        -0.2000 
     52 C          32.7324   33.4209    1.2680 C.2       8 UNK         0.4948 
     53 O          32.9175   32.2051    1.1852 O.2       8 UNK        -0.5275 
     54 N          33.3200   34.2207    2.1712 N.am      9 UNK        -0.4246 
     55 CA         34.2672   33.8316    3.2271 C.3       9 UNK         0.0261 
     56 CB         35.6167   33.4138    2.6038 C.3       9 UNK        -0.1959 
     57 C          33.7252   32.7668    4.2073 C.2       9 UNK         0.5033 
     58 O          34.5225   32.0648    4.8315 O.2       9 UNK        -0.5390 
     59 N          32.3903   32.6471    4.3092 N.am      10 UNK        -0.4215 
     60 CA         31.6495   31.5841    4.9991 C.3       10 UNK         0.0240 
     61 CB         31.8207   31.6833    6.5296 C.3       10 UNK        -0.1982 
     62 C          31.9643   30.1783    4.4429 C.2       10 UNK         0.4970 
     63 O          32.0089   29.2136    5.2093 O.2       10 UNK        -0.4916 
     64 N          32.2032   30.0934    3.1257 N.am      11 UNK        -0.4279 
     65 CA         32.6331   28.9096    2.3682 C.3       11 UNK         0.1003 
     66 C          34.1050   28.5032    2.6625 C.2       11 UNK         0.5709 
     67 N          34.4931   28.3358    3.9200 N.am      11 UNK        -0.7358 
     68 O          34.9027   28.3438    1.7420 O.2       11 UNK        -0.4999 
     69 C69        31.6407   27.7193    2.4934 C.3       12 UNK        -0.0954 
     70 S70        31.8284   26.4722    1.1761 S.3       12 UNK        -0.2268 
     71 C71        32.8517   25.2129    2.0050 C.3       12 UNK         0.0203 
     72 H72        27.0276   18.5596   -3.2940 H         1 UNK         0.0888 
     73 H73        27.9578   17.5330   -2.1985 H         1 UNK         0.0888 
     74 H74        26.5840   18.4574   -1.5890 H         1 UNK         0.0888 
     75 H75        27.2057   20.2864   -0.4533 H         1 UNK         0.3017 
     76 H76        29.8688   21.3629   -0.5629 H         1 UNK         0.0873 
     77 H77        27.3775   22.5216    0.8037 H         1 UNK         0.0745 
     78 H78        29.0176   23.0121    1.1016 H         1 UNK         0.0745 
     79 H79        30.8568   20.6301    1.5828 H         1 UNK         0.0705 
     80 H80        30.5074   20.0618    3.1914 H         1 UNK         0.0705 
     81 H81        31.7298   22.8547    1.2713 H         1 UNK         0.1334 
     82 H82        32.1836   25.4499    4.6548 H         1 UNK         0.1417 
     83 H83        29.9834   21.7924    5.0400 H         1 UNK         0.1562 
     84 H84        31.3870   24.8044    6.8155 H         1 UNK         0.0748 
     85 H85        31.0816   23.1055    7.0633 H         1 UNK         0.0748 
     86 H86        29.7659   26.4808    7.4909 H         1 UNK         0.0940 
     87 H87        28.0318   26.3684    7.4177 H         1 UNK         0.0940 
     88 H88        29.9503   26.7721    5.0819 H         1 UNK         0.0703 
     89 H89        28.4962   25.8460    3.6831 H         1 UNK         0.3081 
     90 H90        26.3868   24.5140    3.2852 H         1 UNK         0.0719 
     91 H91        24.0461   26.4776    3.5118 H         1 UNK         0.0809 
     92 H92        24.0300   24.9401    2.6463 H         1 UNK         0.0809 
     93 H93        24.2065   24.9636    4.3915 H         1 UNK         0.0809 
     94 H94        25.6131   26.7578    1.6361 H         1 UNK         0.2990 
     95 H95        26.6519   26.7037   -0.4708 H         1 UNK         0.0690 
     96 H96        28.1208   28.7047   -0.8119 H         1 UNK         0.0788 
     97 H97        29.0574   28.2927    0.6195 H         1 UNK         0.0788 
     98 H98        27.3775   28.7909    0.7761 H         1 UNK         0.0788 
     99 H99        29.1838   25.4016   -0.1512 H         1 UNK         0.2993 
    100 H100       29.2971   24.5386   -3.6006 H         1 UNK         0.0949 
    101 H101       31.7444   24.6742   -3.2014 H         1 UNK         0.0767 
    102 H102       31.0710   26.2868   -3.3708 H         1 UNK         0.0767 
    103 H103       31.4859   25.6790   -1.7750 H         1 UNK         0.0767 
    104 H104       30.5287   23.4512   -1.2491 H         1 UNK         0.3013 
    105 H105       28.5260   28.5987    3.6267 H         1 UNK         0.3121 
    106 H106       28.3358   31.0091    5.2578 H         1 UNK         0.0774 
    107 H107       25.9528   31.4074    4.6180 H         1 UNK         0.0815 
    108 H108       25.8955   29.8719    3.7598 H         1 UNK         0.0815 
    109 H109       26.0607   29.9053    5.5115 H         1 UNK         0.0815 
    110 H110       27.3151   32.7257    3.5625 H         1 UNK         0.2987 
    111 H111       27.6302   34.0247    1.8146 H         1 UNK         0.0949 
    112 H112       28.3861   31.5771    0.1256 H         1 UNK         0.0806 
    113 H113       26.7386   32.1024    0.4433 H         1 UNK         0.0806 
    114 H114       27.8212   33.1409   -0.4568 H         1 UNK         0.0806 
    115 H115       29.8528   33.2873   -0.2634 H         1 UNK         0.3010 
    116 H116       31.7108   35.1694    0.5329 H         1 UNK         0.0829 
    117 H117       31.4258   34.4269   -1.8057 H         1 UNK         0.0813 
    118 H118       33.1063   34.2405   -1.3334 H         1 UNK         0.0813 
    119 H119       32.0628   32.8286   -1.4148 H         1 UNK         0.0813 
    120 H120       33.0598   35.1980    2.1716 H         1 UNK         0.3038 
    121 H121       34.4417   34.7268    3.8257 H         1 UNK         0.0769 
    122 H122       36.3760   33.2636    3.3723 H         1 UNK         0.0811 
    123 H123       35.9947   34.1776    1.9244 H         1 UNK         0.0811 
    124 H124       35.5308   32.4805    2.0459 H         1 UNK         0.0811 
    125 H125       31.8113   33.2703    3.7505 H         1 UNK         0.3204 
    126 H126       30.5995   31.7689    4.7796 H         1 UNK         0.0748 
    127 H127       31.1567   30.9846    7.0407 H         1 UNK         0.0771 
    128 H128       32.8394   31.4491    6.8401 H         1 UNK         0.0771 
    129 H129       31.5795   32.6824    6.8921 H         1 UNK         0.0771 
    130 H130       32.2073   30.9491    2.5796 H         1 UNK         0.2980 
    131 H131       32.6080   29.2398    1.3287 H         1 UNK         0.0545 
    132 H132       33.8273   28.4990    4.6656 H         1 UNK         0.3459 
    133 H133       35.4460   28.0830    4.1256 H         1 UNK         0.3459 
    134 H134       31.7193   27.2497    3.4706 H         1 UNK         0.0616 
    135 H135       30.6173   28.0889    2.4296 H         1 UNK         0.0616 
    136 H136       33.6246   25.6879    2.6090 H         1 UNK         0.0634 
    137 H137       33.3816   24.6451    1.2389 H         1 UNK         0.0634 
@<TRIPOS>BOND
     1    1    2 1    
     2    1   72 1    
     3    1   73 1    
     4    1   74 1    
     5    2    3 2    
     6    2    4 am   BACKBONE|DICT|INTERRES
     7    4    5 1    
     8    4   75 1    
     9    5    6 1    
    10    5   35 1    
    11    5   76 1    
    12    6    7 1    
    13    6   77 1    
    14    6   78 1    
    15    7    8 1    
    16    8    9 1    
    17    8   79 1    
    18    8   80 1    
    19    9   10 ar   
    20    9   14 ar   
    21   10   11 ar   
    22   10   81 1    
    23   11   12 ar   
    24   11   71 1    
    25   12   13 ar   
    26   12   82 1    
    27   13   14 ar   
    28   13   15 1    
    29   14   83 1    
    30   15   16 1    
    31   15   84 1    
    32   15   85 1    
    33   16   17 1    
    34   17   18 1    
    35   17   86 1    
    36   17   87 1    
    37   18   19 1    
    38   18   37 1    
    39   18   88 1    
    40   19   20 am   BACKBONE|DICT|INTERRES
    41   19   89 1    
    42   20   21 2    
    43   20   22 1    
    44   22   23 1    
    45   22   24 1    
    46   22   90 1    
    47   23   91 1    
    48   23   92 1    
    49   23   93 1    
    50   24   25 am   BACKBONE|DICT|INTERRES
    51   24   94 1    
    52   25   26 2    
    53   25   27 1    
    54   27   28 1    
    55   27   29 1    
    56   27   95 1    
    57   28   96 1    
    58   28   97 1    
    59   28   98 1    
    60   29   30 am   BACKBONE|DICT|INTERRES
    61   29   99 1    
    62   30   31 2    
    63   30   32 1    
    64   32   33 1    
    65   32   34 1    
    66   32  100 1    
    67   33  101 1    
    68   33  102 1    
    69   33  103 1    
    70   34   35 am   BACKBONE|DICT|INTERRES
    71   34  104 1    
    72   35   36 2    
    73   37   38 2    
    74   37   39 am   BACKBONE|DICT|INTERRES
    75   39   40 1    
    76   39  105 1    
    77   40   41 1    
    78   40   42 1    
    79   40  106 1    
    80   41  107 1    
    81   41  108 1    
    82   41  109 1    
    83   42   43 2    
    84   42   44 am   BACKBONE|DICT|INTERRES
    85   44   45 1    
    86   44  110 1    
    87   45   46 1    
    88   45   47 1    
    89   45  111 1    
    90   46  112 1    
    91   46  113 1    
    92   46  114 1    
    93   47   48 2    
    94   47   49 am   BACKBONE|DICT|INTERRES
    95   49   50 1    
    96   49  115 1    
    97   50   51 1    
    98   50   52 1    
    99   50  116 1    
   100   51  117 1    
   101   51  118 1    
   102   51  119 1    
   103   52   53 2    
   104   52   54 am   BACKBONE|DICT|INTERRES
   105   54   55 1    
   106   54  120 1    
   107   55   56 1    
   108   55   57 1    
   109   55  121 1    
   110   56  122 1    
   111   56  123 1    
   112   56  124 1    
   113   57   58 2    
   114   57   59 am   BACKBONE|DICT|INTERRES
   115   59   60 1    
   116   59  125 1    
   117   60   61 1    
   118   60   62 1    
   119   60  126 1    
   120   61  127 1    
   121   61  128 1    
   122   61  129 1    
   123   62   63 2    
   124   62   64 am   BACKBONE|DICT|INTERRES
   125   64   65 1    
   126   64  130 1    
   127   65   66 1    
   128   65   69 1    
   129   65  131 1    
   130   66   67 am   BACKBONE|DICT|INTERRES
   131   66   68 2    
   132   67  132 1    
   133   67  133 1    
   134   69   70 1    
   135   69  134 1    
   136   69  135 1    
   137   70   71 1    
   138   71  136 1    
   139   71  137 1    
@<TRIPOS>SUBSTRUCTURE
     1 UNK         1 GROUP             0       ****    0 ROOT    
