@<TRIPOS>MOLECULE
3R136
137   139    1
SMALL
USER_CHARGES


@<TRIPOS>ATOM
      1 CA         25.9894   22.3267    1.2613 C.3       0 UNK        -0.1979 
      2 C          27.1125   23.3496    1.2208 C.2       0 UNK         0.4864 
      3 O          27.0598   24.2824    0.4144 O.2       0 UNK        -0.5359 
      4 N          28.1162   23.1741    2.0951 N.am      1 UNK        -0.4318 
      5 CA         29.3379   23.9813    2.2071 C.3       1 UNK         0.0824 
      6 C6         30.2367   23.5414    3.3936 C.3       12 UNK        -0.0944 
      7 S7         30.7583   21.7893    3.4222 S.3       12 UNK        -0.2672 
      8 C8         31.5498   21.4659    1.8045 C.3       12 UNK         0.0333 
      9 C9         32.3654   22.6225    1.2331 C.ar      12 UNK        -0.0807 
     10 C10        33.2737   23.3425    2.0164 C.ar      12 UNK        -0.0894 
     11 C11        33.9520   24.4419    1.4819 C.ar      12 UNK        -0.0804 
     12 C12        33.7391   24.8001    0.1472 C.ar      12 UNK        -0.0824 
     13 C13        32.8510   24.0801   -0.6564 C.ar      12 UNK        -0.0762 
     14 C14        32.1889   22.9754   -0.1072 C.ar      12 UNK        -0.0782 
     15 C15        32.6294   24.5386   -2.1003 C.3       12 UNK         0.0230 
     16 S16        31.0881   23.9522   -2.8940 S.3       12 UNK        -0.2608 
     17 C17        29.8066   24.6115   -1.7735 C.3       12 UNK        -0.0989 
     18 CA         29.0806   25.8495   -2.3462 C.3       5 UNK         0.0716 
     19 N          27.7365   25.9948   -1.7762 N.am      5 UNK        -0.4135 
     20 C          26.7871   26.7798   -2.3048 C.2       4 UNK         0.5031 
     21 O          26.9658   27.4940   -3.2928 O.2       4 UNK        -0.5229 
     22 CA         25.3885   26.7489   -1.6766 C.3       4 UNK         0.0329 
     23 CB         24.5325   25.6427   -2.3195 C.3       4 UNK        -0.2001 
     24 N          25.3955   26.5781   -0.2216 N.am      4 UNK        -0.4303 
     25 C          24.5071   27.1672    0.5911 C.2       3 UNK         0.5044 
     26 O          23.6582   27.9765    0.2131 O.2       3 UNK        -0.5152 
     27 CA         24.5322   26.7684    2.0735 C.3       3 UNK         0.0319 
     28 CB         23.7491   25.4631    2.2895 C.3       3 UNK        -0.2001 
     29 N          25.8812   26.6235    2.6168 N.am      3 UNK        -0.4354 
     30 C          26.6889   27.6462    2.9315 C.2       2 UNK         0.4964 
     31 O          26.4083   28.8288    2.7389 O.2       2 UNK        -0.5047 
     32 CA         28.0144   27.2984    3.6299 C.3       2 UNK         0.0288 
     33 CB         27.8895   27.5306    5.1437 C.3       2 UNK        -0.2113 
     34 N          28.4345   25.9159    3.4040 N.am      2 UNK        -0.4145 
     35 C          29.0468   25.4928    2.2918 C.2       1 UNK         0.5006 
     36 O          29.3388   26.2301    1.3509 O.2       1 UNK        -0.5103 
     37 C          29.9213   27.1333   -2.1888 C.2       5 UNK         0.5055 
     38 O          30.4740   27.6287   -3.1730 O.2       5 UNK        -0.5220 
     39 N          29.9914   27.6423   -0.9556 N.am      6 UNK        -0.4450 
     40 CA         30.6932   28.8594   -0.5692 C.3       6 UNK         0.0367 
     41 CB         31.9877   28.4751    0.1769 C.3       6 UNK        -0.1929 
     42 C          29.7217   29.7332    0.2408 C.2       6 UNK         0.5070 
     43 O          28.6141   29.9944   -0.2320 O.2       6 UNK        -0.5237 
     44 N          30.1385   30.1821    1.4284 N.am      7 UNK        -0.4739 
     45 CA         29.3603   31.0074    2.3468 C.3       7 UNK         0.0276 
     46 CB         29.5659   32.4941    2.0058 C.3       7 UNK        -0.1927 
     47 C          29.8201   30.7105    3.7759 C.2       7 UNK         0.5013 
     48 O          30.9413   30.2285    3.9657 O.2       7 UNK        -0.5193 
     49 N          28.9706   31.0401    4.7581 N.am      8 UNK        -0.4253 
     50 CA         29.2094   30.8250    6.1919 C.3       8 UNK         0.0242 
     51 CB         27.9681   31.2565    6.9887 C.3       8 UNK        -0.2000 
     52 C          30.4690   31.5178    6.7389 C.2       8 UNK         0.4948 
     53 O          31.1135   30.9753    7.6362 O.2       8 UNK        -0.5275 
     54 N          30.8238   32.6727    6.1603 N.am      9 UNK        -0.4246 
     55 CA         32.0490   33.4142    6.4669 C.3       9 UNK         0.0261 
     56 CB         31.9588   34.8124    5.8332 C.3       9 UNK        -0.1959 
     57 C          33.3387   32.7024    6.0122 C.2       9 UNK         0.5033 
     58 O          34.4034   33.0076    6.5519 O.2       9 UNK        -0.5390 
     59 N          33.2326   31.7931    5.0330 N.am      10 UNK        -0.4215 
     60 CA         34.3520   31.0387    4.4726 C.3       10 UNK         0.0240 
     61 CB         34.2583   31.0530    2.9360 C.3       10 UNK        -0.1982 
     62 C          34.3765   29.5972    4.9977 C.2       10 UNK         0.4970 
     63 O          35.4281   29.1451    5.4526 O.2       10 UNK        -0.4916 
     64 N          33.2361   28.9023    4.9006 N.am      11 UNK        -0.4279 
     65 CA         33.1048   27.4528    5.1263 C.3       11 UNK         0.1003 
     66 C          32.0068   27.0880    6.1655 C.2       11 UNK         0.5709 
     67 N          31.4908   28.0243    6.9514 N.am      11 UNK        -0.7358 
     68 O          31.6240   25.9264    6.2823 O.2       11 UNK        -0.4999 
     69 C69        32.9196   26.6849    3.7867 C.3       12 UNK        -0.0954 
     70 S70        34.2944   26.9492    2.6127 S.3       12 UNK        -0.2268 
     71 C71        34.9077   25.2559    2.3425 C.3       12 UNK         0.0203 
     72 H72        25.3505   22.4240    0.3837 H         1 UNK         0.0888 
     73 H73        25.3746   22.4695    2.1493 H         1 UNK         0.0888 
     74 H74        26.3889   21.3130    1.2757 H         1 UNK         0.0888 
     75 H75        28.0787   22.3801    2.7190 H         1 UNK         0.3017 
     76 H76        29.8916   23.8266    1.2831 H         1 UNK         0.0873 
     77 H77        31.1326   24.1595    3.4354 H         1 UNK         0.0745 
     78 H78        29.7270   23.7170    4.3426 H         1 UNK         0.0745 
     79 H79        32.1988   20.5949    1.9025 H         1 UNK         0.0705 
     80 H80        30.7604   21.1784    1.1080 H         1 UNK         0.0705 
     81 H81        33.4257   23.0655    3.0507 H         1 UNK         0.1334 
     82 H82        34.2589   25.6567   -0.2604 H         1 UNK         0.1417 
     83 H83        31.5052   22.3985   -0.7132 H         1 UNK         0.1562 
     84 H84        33.4746   24.2026   -2.7021 H         1 UNK         0.0748 
     85 H85        32.6364   25.6291   -2.1413 H         1 UNK         0.0748 
     86 H86        30.2228   24.8259   -0.7897 H         1 UNK         0.0940 
     87 H87        29.0922   23.8015   -1.6163 H         1 UNK         0.0940 
     88 H88        28.9419   25.6853   -3.4176 H         1 UNK         0.0703 
     89 H89        27.5178   25.4069   -0.9748 H         1 UNK         0.3081 
     90 H90        24.9352   27.7114   -1.9243 H         1 UNK         0.0719 
     91 H91        24.9141   24.6496   -2.0786 H         1 UNK         0.0809 
     92 H92        23.4977   25.6950   -1.9806 H         1 UNK         0.0809 
     93 H93        24.5213   25.7358   -3.4064 H         1 UNK         0.0809 
     94 H94        26.0467   25.8998    0.1636 H         1 UNK         0.2990 
     95 H95        24.0265   27.5568    2.6359 H         1 UNK         0.0690 
     96 H96        23.7177   25.1855    3.3433 H         1 UNK         0.0788 
     97 H97        24.1839   24.6331    1.7329 H         1 UNK         0.0788 
     98 H98        22.7167   25.5709    1.9537 H         1 UNK         0.0788 
     99 H99        26.2010   25.6854    2.8014 H         1 UNK         0.2993 
    100 H100       28.7800   27.9701    3.2360 H         1 UNK         0.0949 
    101 H101       27.5282   28.5367    5.3563 H         1 UNK         0.0767 
    102 H102       27.1870   26.8347    5.6040 H         1 UNK         0.0767 
    103 H103       28.8522   27.4148    5.6414 H         1 UNK         0.0767 
    104 H104       28.2224   25.2490    4.1321 H         1 UNK         0.3013 
    105 H105       29.5237   27.1549   -0.1915 H         1 UNK         0.3121 
    106 H106       30.9643   29.4389   -1.4539 H         1 UNK         0.0774 
    107 H107       32.6283   27.8530   -0.4482 H         1 UNK         0.0815 
    108 H108       31.7757   27.9110    1.0855 H         1 UNK         0.0815 
    109 H109       32.5717   29.3545    0.4501 H         1 UNK         0.0815 
    110 H110       31.0321   29.8798    1.7947 H         1 UNK         0.2987 
    111 H111       28.3020   30.7498    2.2635 H         1 UNK         0.0949 
    112 H112       30.6139   32.7857    2.0898 H         1 UNK         0.0806 
    113 H113       29.2395   32.7150    0.9894 H         1 UNK         0.0806 
    114 H114       28.9913   33.1372    2.6734 H         1 UNK         0.0806 
    115 H115       28.0769   31.4401    4.5087 H         1 UNK         0.3010 
    116 H116       29.3524   29.7542    6.3403 H         1 UNK         0.0829 
    117 H117       27.0844   30.6944    6.6862 H         1 UNK         0.0813 
    118 H118       28.1097   31.0812    8.0563 H         1 UNK         0.0813 
    119 H119       27.7525   32.3179    6.8588 H         1 UNK         0.0813 
    120 H120       30.2282   33.0502    5.4378 H         1 UNK         0.3038 
    121 H121       32.1084   33.5328    7.5511 H         1 UNK         0.0769 
    122 H122       31.8823   34.7599    4.7463 H         1 UNK         0.0811 
    123 H123       32.8439   35.4052    6.0686 H         1 UNK         0.0811 
    124 H124       31.0951   35.3634    6.2061 H         1 UNK         0.0811 
    125 H125       32.3114   31.5561    4.6831 H         1 UNK         0.3204 
    126 H126       35.2995   31.5069    4.7481 H         1 UNK         0.0748 
    127 H127       34.3255   32.0689    2.5465 H         1 UNK         0.0771 
    128 H128       35.0725   30.4798    2.4902 H         1 UNK         0.0771 
    129 H129       33.3235   30.6205    2.5787 H         1 UNK         0.0771 
    130 H130       32.4012   29.3604    4.5408 H         1 UNK         0.2980 
    131 H131       34.0235   27.0789    5.5807 H         1 UNK         0.0545 
    132 H132       30.7993   27.7556    7.6320 H         1 UNK         0.3459 
    133 H133       31.8038   28.9837    6.9118 H         1 UNK         0.3459 
    134 H134       32.8357   25.6151    3.9773 H         1 UNK         0.0616 
    135 H135       31.9881   26.9825    3.3025 H         1 UNK         0.0616 
    136 H136       35.0834   24.7746    3.3059 H         1 UNK         0.0634 
    137 H137       35.8763   25.3095    1.8438 H         1 UNK         0.0634 
@<TRIPOS>BOND
     1    1    2 1    
     2    1   72 1    
     3    1   73 1    
     4    1   74 1    
     5    2    3 2    
     6    2    4 am   BACKBONE|DICT|INTERRES
     7    4    5 1    
     8    4   75 1    
     9    5    6 1    
    10    5   35 1    
    11    5   76 1    
    12    6    7 1    
    13    6   77 1    
    14    6   78 1    
    15    7    8 1    
    16    8    9 1    
    17    8   79 1    
    18    8   80 1    
    19    9   10 ar   
    20    9   14 ar   
    21   10   11 ar   
    22   10   81 1    
    23   11   12 ar   
    24   11   71 1    
    25   12   13 ar   
    26   12   82 1    
    27   13   14 ar   
    28   13   15 1    
    29   14   83 1    
    30   15   16 1    
    31   15   84 1    
    32   15   85 1    
    33   16   17 1    
    34   17   18 1    
    35   17   86 1    
    36   17   87 1    
    37   18   19 1    
    38   18   37 1    
    39   18   88 1    
    40   19   20 am   BACKBONE|DICT|INTERRES
    41   19   89 1    
    42   20   21 2    
    43   20   22 1    
    44   22   23 1    
    45   22   24 1    
    46   22   90 1    
    47   23   91 1    
    48   23   92 1    
    49   23   93 1    
    50   24   25 am   BACKBONE|DICT|INTERRES
    51   24   94 1    
    52   25   26 2    
    53   25   27 1    
    54   27   28 1    
    55   27   29 1    
    56   27   95 1    
    57   28   96 1    
    58   28   97 1    
    59   28   98 1    
    60   29   30 am   BACKBONE|DICT|INTERRES
    61   29   99 1    
    62   30   31 2    
    63   30   32 1    
    64   32   33 1    
    65   32   34 1    
    66   32  100 1    
    67   33  101 1    
    68   33  102 1    
    69   33  103 1    
    70   34   35 am   BACKBONE|DICT|INTERRES
    71   34  104 1    
    72   35   36 2    
    73   37   38 2    
    74   37   39 am   BACKBONE|DICT|INTERRES
    75   39   40 1    
    76   39  105 1    
    77   40   41 1    
    78   40   42 1    
    79   40  106 1    
    80   41  107 1    
    81   41  108 1    
    82   41  109 1    
    83   42   43 2    
    84   42   44 am   BACKBONE|DICT|INTERRES
    85   44   45 1    
    86   44  110 1    
    87   45   46 1    
    88   45   47 1    
    89   45  111 1    
    90   46  112 1    
    91   46  113 1    
    92   46  114 1    
    93   47   48 2    
    94   47   49 am   BACKBONE|DICT|INTERRES
    95   49   50 1    
    96   49  115 1    
    97   50   51 1    
    98   50   52 1    
    99   50  116 1    
   100   51  117 1    
   101   51  118 1    
   102   51  119 1    
   103   52   53 2    
   104   52   54 am   BACKBONE|DICT|INTERRES
   105   54   55 1    
   106   54  120 1    
   107   55   56 1    
   108   55   57 1    
   109   55  121 1    
   110   56  122 1    
   111   56  123 1    
   112   56  124 1    
   113   57   58 2    
   114   57   59 am   BACKBONE|DICT|INTERRES
   115   59   60 1    
   116   59  125 1    
   117   60   61 1    
   118   60   62 1    
   119   60  126 1    
   120   61  127 1    
   121   61  128 1    
   122   61  129 1    
   123   62   63 2    
   124   62   64 am   BACKBONE|DICT|INTERRES
   125   64   65 1    
   126   64  130 1    
   127   65   66 1    
   128   65   69 1    
   129   65  131 1    
   130   66   67 am   BACKBONE|DICT|INTERRES
   131   66   68 2    
   132   67  132 1    
   133   67  133 1    
   134   69   70 1    
   135   69  134 1    
   136   69  135 1    
   137   70   71 1    
   138   71  136 1    
   139   71  137 1    
@<TRIPOS>SUBSTRUCTURE
     1 UNK         1 GROUP             0       ****    0 ROOT    
