@<TRIPOS>MOLECULE
3R136
137   139    1
SMALL
USER_CHARGES


@<TRIPOS>ATOM
      1 CA         25.8823   18.3560    3.7814 C.3       0 UNK        -0.1979 
      2 C          26.3441   19.0834    2.5271 C.2       0 UNK         0.4864 
      3 O          25.6983   18.9734    1.4832 O.2       0 UNK        -0.5359 
      4 N          27.4608   19.8164    2.6192 N.am      1 UNK        -0.4318 
      5 CA         28.0161   20.6438    1.5440 C.3       1 UNK         0.0824 
      6 C6         29.5287   20.9133    1.7533 C.3       12 UNK        -0.0944 
      7 S7         29.9638   21.6397    3.3732 S.3       12 UNK        -0.2672 
      8 C8         30.0704   23.4153    2.9894 C.3       12 UNK         0.0333 
      9 C9         31.3292   23.7709    2.2097 C.ar      12 UNK        -0.0807 
     10 C10        32.5215   24.0421    2.8883 C.ar      12 UNK        -0.0894 
     11 C11        33.6711   24.4170    2.1862 C.ar      12 UNK        -0.0804 
     12 C12        33.6250   24.4936    0.7898 C.ar      12 UNK        -0.0824 
     13 C13        32.4385   24.2329    0.0996 C.ar      12 UNK        -0.0762 
     14 C14        31.2923   23.8765    0.8164 C.ar      12 UNK        -0.0782 
     15 C15        32.4094   24.3257   -1.4197 C.3       12 UNK         0.0230 
     16 S16        32.1492   26.0339   -1.9965 S.3       12 UNK        -0.2608 
     17 C17        30.3539   26.2197   -1.7439 C.3       12 UNK        -0.0989 
     18 CA         29.9103   27.6632   -1.4100 C.3       5 UNK         0.0716 
     19 N          28.4535   27.7741   -1.4279 N.am      5 UNK        -0.4135 
     20 C          27.7643   28.8837   -1.7285 C.2       4 UNK         0.5031 
     21 O          28.2804   29.9322   -2.1150 O.2       4 UNK        -0.5229 
     22 CA         26.2329   28.8101   -1.5749 C.3       4 UNK         0.0329 
     23 CB         25.5764   28.4237   -2.9101 C.3       4 UNK        -0.2001 
     24 N          25.8202   27.8591   -0.5391 N.am      4 UNK        -0.4303 
     25 C          25.9784   28.0621    0.7772 C.2       3 UNK         0.5044 
     26 O          26.3335   29.1372    1.2552 O.2       3 UNK        -0.5152 
     27 CA         25.7176   26.8679    1.7167 C.3       3 UNK         0.0319 
     28 CB         24.3760   27.0394    2.4468 C.3       3 UNK        -0.2001 
     29 N          25.7315   25.5686    1.0330 N.am      3 UNK        -0.4354 
     30 C          26.8216   24.9807    0.5216 C.2       2 UNK         0.4964 
     31 O          27.9577   25.4565    0.5947 O.2       2 UNK        -0.5047 
     32 CA         26.5800   23.7072   -0.3070 C.3       2 UNK         0.0288 
     33 CB         26.9037   23.9720   -1.7876 C.3       2 UNK        -0.2113 
     34 N          27.3509   22.5492    0.1503 N.am      2 UNK        -0.4145 
     35 C          27.1957   21.9384    1.3339 C.2       1 UNK         0.5006 
     36 O          26.4396   22.3483    2.2199 O.2       1 UNK        -0.5103 
     37 C          30.4369   28.1752   -0.0552 C.2       5 UNK         0.5055 
     38 O          31.2469   29.1043   -0.0306 O.2       5 UNK        -0.5220 
     39 N          29.9131   27.6243    1.0508 N.am      6 UNK        -0.4450 
     40 CA         30.1809   28.0940    2.4135 C.3       6 UNK         0.0367 
     41 CB         30.0001   26.9363    3.4062 C.3       6 UNK        -0.1929 
     42 C          29.3094   29.3120    2.7681 C.2       6 UNK         0.5070 
     43 O          28.4788   29.2402    3.6767 O.2       6 UNK        -0.5237 
     44 N          29.4884   30.4002    2.0107 N.am      7 UNK        -0.4739 
     45 CA         28.7562   31.6587    2.1331 C.3       7 UNK         0.0276 
     46 CB         28.9954   32.4989    0.8658 C.3       7 UNK        -0.1927 
     47 C          29.1375   32.4168    3.4173 C.2       7 UNK         0.5013 
     48 O          30.0084   33.2901    3.3821 O.2       7 UNK        -0.5193 
     49 N          28.4822   32.0510    4.5276 N.am      8 UNK        -0.4253 
     50 CA         28.6181   32.6100    5.8759 C.3       8 UNK         0.0242 
     51 CB         28.0647   34.0527    5.9300 C.3       8 UNK        -0.2000 
     52 C          30.0565   32.4754    6.4060 C.2       8 UNK         0.4948 
     53 O          30.4194   31.4036    6.8913 O.2       8 UNK        -0.5275 
     54 N          30.8433   33.5542    6.3032 N.am      9 UNK        -0.4246 
     55 CA         32.2547   33.5980    6.6851 C.3       9 UNK         0.0261 
     56 CB         32.6927   35.0652    6.8245 C.3       9 UNK        -0.1959 
     57 C          33.1786   32.8529    5.7047 C.2       9 UNK         0.5033 
     58 O          34.2702   32.4495    6.1127 O.2       9 UNK        -0.5390 
     59 N          32.7565   32.6894    4.4404 N.am      10 UNK        -0.4215 
     60 CA         33.5207   31.9772    3.4140 C.3       10 UNK         0.0240 
     61 CB         32.8764   32.1902    2.0361 C.3       10 UNK        -0.1982 
     62 C          33.6254   30.4794    3.7403 C.2       10 UNK         0.4970 
     63 O          32.6147   29.8566    4.0684 O.2       10 UNK        -0.4916 
     64 N          34.8475   29.9444    3.6435 N.am      11 UNK        -0.4279 
     65 CA         35.2097   28.5526    3.9577 C.3       11 UNK         0.1003 
     66 C          35.0673   28.1531    5.4606 C.2       11 UNK         0.5709 
     67 N          34.9236   29.0960    6.3858 N.am      11 UNK        -0.7358 
     68 O          35.1244   26.9750    5.8041 O.2       11 UNK        -0.4999 
     69 C69        34.5617   27.5330    2.9711 C.3       12 UNK        -0.0954 
     70 S70        35.7557   26.2720    2.4098 S.3       12 UNK        -0.2268 
     71 C71        34.9610   24.7194    2.9419 C.3       12 UNK         0.0203 
     72 H72        26.5530   18.5290    4.6229 H         1 UNK         0.0888 
     73 H73        24.8868   18.6953    4.0663 H         1 UNK         0.0888 
     74 H74        25.8380   17.2827    3.5985 H         1 UNK         0.0888 
     75 H75        27.9344   19.9000    3.5078 H         1 UNK         0.3017 
     76 H76        27.9222   20.0696    0.6192 H         1 UNK         0.0873 
     77 H77        29.9335   21.5162    0.9424 H         1 UNK         0.0745 
     78 H78        30.0635   19.9648    1.6835 H         1 UNK         0.0745 
     79 H79        29.1806   23.7381    2.4485 H         1 UNK         0.0705 
     80 H80        30.0589   23.9640    3.9320 H         1 UNK         0.0705 
     81 H81        32.5483   23.9721    3.9673 H         1 UNK         0.1334 
     82 H82        34.5126   24.7711    0.2377 H         1 UNK         0.1417 
     83 H83        30.3673   23.6836    0.2920 H         1 UNK         0.1562 
     84 H84        31.6364   23.6752   -1.8324 H         1 UNK         0.0748 
     85 H85        33.3553   23.9617   -1.8236 H         1 UNK         0.0748 
     86 H86        30.0141   25.5319   -0.9731 H         1 UNK         0.0940 
     87 H87        29.8678   25.8928   -2.6647 H         1 UNK         0.0940 
     88 H88        30.3134   28.3171   -2.1870 H         1 UNK         0.0703 
     89 H89        27.9472   26.9768   -1.0703 H         1 UNK         0.3081 
     90 H90        25.8789   29.8045   -1.2935 H         1 UNK         0.0719 
     91 H91        25.8468   29.1313   -3.6953 H         1 UNK         0.0809 
     92 H92        25.8866   27.4328   -3.2445 H         1 UNK         0.0809 
     93 H93        24.4889   28.4283   -2.8337 H         1 UNK         0.0809 
     94 H94        25.4625   26.9677   -0.8479 H         1 UNK         0.2990 
     95 H95        26.5155   26.8665    2.4629 H         1 UNK         0.0690 
     96 H96        24.3487   27.9825    2.9947 H         1 UNK         0.0788 
     97 H97        24.2142   26.2417    3.1721 H         1 UNK         0.0788 
     98 H98        23.5344   27.0410    1.7529 H         1 UNK         0.0788 
     99 H99        24.8375   25.1092    0.9299 H         1 UNK         0.2993 
    100 H100       25.5233   23.4395   -0.2365 H         1 UNK         0.0949 
    101 H101       26.6469   23.1134   -2.4086 H         1 UNK         0.0767 
    102 H102       26.3382   24.8228   -2.1701 H         1 UNK         0.0767 
    103 H103       27.9619   24.1879   -1.9388 H         1 UNK         0.0767 
    104 H104       27.9999   22.1578   -0.5162 H         1 UNK         0.3013 
    105 H105       29.2320   26.8760    0.9541 H         1 UNK         0.3121 
    106 H106       31.2226   28.4119    2.4766 H         1 UNK         0.0774 
    107 H107       30.0923   27.2818    4.4369 H         1 UNK         0.0815 
    108 H108       29.0275   26.4543    3.3016 H         1 UNK         0.0815 
    109 H109       30.7767   26.1921    3.2582 H         1 UNK         0.0815 
    110 H110       30.1870   30.3434    1.2779 H         1 UNK         0.2987 
    111 H111       27.6891   31.4289    2.1799 H         1 UNK         0.0949 
    112 H112       28.4580   33.4464    0.9208 H         1 UNK         0.0806 
    113 H113       30.0508   32.7318    0.7216 H         1 UNK         0.0806 
    114 H114       28.6433   31.9780   -0.0252 H         1 UNK         0.0806 
    115 H115       27.9041   31.2211    4.4554 H         1 UNK         0.3010 
    116 H116       27.9942   31.9972    6.5286 H         1 UNK         0.0829 
    117 H117       28.5661   34.7226    5.2309 H         1 UNK         0.0813 
    118 H118       27.0017   34.0691    5.6890 H         1 UNK         0.0813 
    119 H119       28.1710   34.4768    6.9295 H         1 UNK         0.0813 
    120 H120       30.4638   34.3771    5.8568 H         1 UNK         0.3038 
    121 H121       32.3595   33.1175    7.6603 H         1 UNK         0.0769 
    122 H122       32.6012   35.6060    5.8816 H         1 UNK         0.0811 
    123 H123       33.7354   35.1325    7.1385 H         1 UNK         0.0811 
    124 H124       32.0969   35.5886    7.5726 H         1 UNK         0.0811 
    125 H125       31.8239   33.0008    4.1834 H         1 UNK         0.3204 
    126 H126       34.5229   32.4107    3.3890 H         1 UNK         0.0748 
    127 H127       33.4804   31.7381    1.2483 H         1 UNK         0.0771 
    128 H128       31.8886   31.7359    1.9847 H         1 UNK         0.0771 
    129 H129       32.7718   33.2497    1.8017 H         1 UNK         0.0771 
    130 H130       35.6195   30.5417    3.3847 H         1 UNK         0.2980 
    131 H131       36.2872   28.5396    3.7910 H         1 UNK         0.0545 
    132 H132       34.8455   28.8255    7.3530 H         1 UNK         0.3459 
    133 H133       34.8651   30.0708    6.1284 H         1 UNK         0.3459 
    134 H134       34.2092   28.0380    2.0702 H         1 UNK         0.0616 
    135 H135       33.6747   27.0654    3.4029 H         1 UNK         0.0616 
    136 H136       34.7822   24.7692    4.0172 H         1 UNK         0.0634 
    137 H137       35.6592   23.8971    2.7814 H         1 UNK         0.0634 
@<TRIPOS>BOND
     1    1    2 1    
     2    1   72 1    
     3    1   73 1    
     4    1   74 1    
     5    2    3 2    
     6    2    4 am   BACKBONE|DICT|INTERRES
     7    4    5 1    
     8    4   75 1    
     9    5    6 1    
    10    5   35 1    
    11    5   76 1    
    12    6    7 1    
    13    6   77 1    
    14    6   78 1    
    15    7    8 1    
    16    8    9 1    
    17    8   79 1    
    18    8   80 1    
    19    9   10 ar   
    20    9   14 ar   
    21   10   11 ar   
    22   10   81 1    
    23   11   12 ar   
    24   11   71 1    
    25   12   13 ar   
    26   12   82 1    
    27   13   14 ar   
    28   13   15 1    
    29   14   83 1    
    30   15   16 1    
    31   15   84 1    
    32   15   85 1    
    33   16   17 1    
    34   17   18 1    
    35   17   86 1    
    36   17   87 1    
    37   18   19 1    
    38   18   37 1    
    39   18   88 1    
    40   19   20 am   BACKBONE|DICT|INTERRES
    41   19   89 1    
    42   20   21 2    
    43   20   22 1    
    44   22   23 1    
    45   22   24 1    
    46   22   90 1    
    47   23   91 1    
    48   23   92 1    
    49   23   93 1    
    50   24   25 am   BACKBONE|DICT|INTERRES
    51   24   94 1    
    52   25   26 2    
    53   25   27 1    
    54   27   28 1    
    55   27   29 1    
    56   27   95 1    
    57   28   96 1    
    58   28   97 1    
    59   28   98 1    
    60   29   30 am   BACKBONE|DICT|INTERRES
    61   29   99 1    
    62   30   31 2    
    63   30   32 1    
    64   32   33 1    
    65   32   34 1    
    66   32  100 1    
    67   33  101 1    
    68   33  102 1    
    69   33  103 1    
    70   34   35 am   BACKBONE|DICT|INTERRES
    71   34  104 1    
    72   35   36 2    
    73   37   38 2    
    74   37   39 am   BACKBONE|DICT|INTERRES
    75   39   40 1    
    76   39  105 1    
    77   40   41 1    
    78   40   42 1    
    79   40  106 1    
    80   41  107 1    
    81   41  108 1    
    82   41  109 1    
    83   42   43 2    
    84   42   44 am   BACKBONE|DICT|INTERRES
    85   44   45 1    
    86   44  110 1    
    87   45   46 1    
    88   45   47 1    
    89   45  111 1    
    90   46  112 1    
    91   46  113 1    
    92   46  114 1    
    93   47   48 2    
    94   47   49 am   BACKBONE|DICT|INTERRES
    95   49   50 1    
    96   49  115 1    
    97   50   51 1    
    98   50   52 1    
    99   50  116 1    
   100   51  117 1    
   101   51  118 1    
   102   51  119 1    
   103   52   53 2    
   104   52   54 am   BACKBONE|DICT|INTERRES
   105   54   55 1    
   106   54  120 1    
   107   55   56 1    
   108   55   57 1    
   109   55  121 1    
   110   56  122 1    
   111   56  123 1    
   112   56  124 1    
   113   57   58 2    
   114   57   59 am   BACKBONE|DICT|INTERRES
   115   59   60 1    
   116   59  125 1    
   117   60   61 1    
   118   60   62 1    
   119   60  126 1    
   120   61  127 1    
   121   61  128 1    
   122   61  129 1    
   123   62   63 2    
   124   62   64 am   BACKBONE|DICT|INTERRES
   125   64   65 1    
   126   64  130 1    
   127   65   66 1    
   128   65   69 1    
   129   65  131 1    
   130   66   67 am   BACKBONE|DICT|INTERRES
   131   66   68 2    
   132   67  132 1    
   133   67  133 1    
   134   69   70 1    
   135   69  134 1    
   136   69  135 1    
   137   70   71 1    
   138   71  136 1    
   139   71  137 1    
@<TRIPOS>SUBSTRUCTURE
     1 UNK         1 GROUP             0       ****    0 ROOT    
