@<TRIPOS>MOLECULE
3R136
137   139    1
SMALL
USER_CHARGES


@<TRIPOS>ATOM
      1 CA         29.3338   22.3296   -4.1849 C.3       0 UNK        -0.1979 
      2 C          29.4962   23.4309   -3.1481 C.2       0 UNK         0.4864 
      3 O          28.9022   24.5000   -3.2932 O.2       0 UNK        -0.5359 
      4 N          30.3003   23.1798   -2.1057 N.am      1 UNK        -0.4318 
      5 CA         30.5414   24.1016   -0.9893 C.3       1 UNK         0.0824 
      6 C6         31.7988   23.7316   -0.1596 C.3       12 UNK        -0.0944 
      7 S7         32.0445   21.9438    0.1647 S.3       12 UNK        -0.2672 
      8 C8         31.1745   21.6283    1.7397 C.3       12 UNK         0.0333 
      9 C9         31.4640   22.6597    2.8219 C.ar      12 UNK        -0.0807 
     10 C10        32.7760   22.9325    3.2211 C.ar      12 UNK        -0.0894 
     11 C11        33.0426   23.9109    4.1845 C.ar      12 UNK        -0.0804 
     12 C12        31.9714   24.6124    4.7564 C.ar      12 UNK        -0.0824 
     13 C13        30.6537   24.3267    4.3875 C.ar      12 UNK        -0.0762 
     14 C14        30.4083   23.3502    3.4205 C.ar      12 UNK        -0.0782 
     15 C15        29.4901   25.0689    5.0311 C.3       12 UNK         0.0230 
     16 S16        28.5228   26.0130    3.8128 S.3       12 UNK        -0.2608 
     17 C17        29.7784   27.2124    3.2439 C.3       12 UNK        -0.0989 
     18 CA         29.1827   28.4298    2.4989 C.3       5 UNK         0.0716 
     19 N          28.4590   28.0228    1.2901 N.am      5 UNK        -0.4135 
     20 C          27.8352   28.8264    0.4194 C.2       4 UNK         0.5031 
     21 O          27.8500   30.0562    0.4916 O.2       4 UNK        -0.5229 
     22 CA         26.9955   28.1532   -0.6800 C.3       4 UNK         0.0329 
     23 CB         27.8582   27.8994   -1.9261 C.3       4 UNK        -0.2001 
     24 N          26.3219   26.9051   -0.2899 N.am      4 UNK        -0.4303 
     25 C          25.5649   26.7022    0.8019 C.2       3 UNK         0.5044 
     26 O          25.4052   27.5436    1.6863 O.2       3 UNK        -0.5152 
     27 CA         24.8404   25.3458    0.9333 C.3       3 UNK         0.0319 
     28 CB         23.3225   25.5658    1.0556 C.3       3 UNK        -0.2001 
     29 N          25.0827   24.4444   -0.2001 N.am      3 UNK        -0.4354 
     30 C          26.0944   23.5846   -0.3871 C.2       2 UNK         0.4964 
     31 O          26.1795   22.9221   -1.4214 O.2       2 UNK        -0.5047 
     32 CA         27.1609   23.3732    0.7043 C.3       2 UNK         0.0288 
     33 CB         26.8767   22.0760    1.4802 C.3       2 UNK        -0.2113 
     34 N          28.4678   23.2751    0.0581 N.am      2 UNK        -0.4145 
     35 C          29.3014   24.3113   -0.0981 C.2       1 UNK         0.5006 
     36 O          29.1072   25.4187    0.4027 O.2       1 UNK        -0.5103 
     37 C          28.3824   29.3405    3.4590 C.2       5 UNK         0.5055 
     38 O          29.0031   30.1053    4.1958 O.2       5 UNK        -0.5220 
     39 N          27.0409   29.2988    3.4150 N.am      6 UNK        -0.4450 
     40 CA         26.1629   30.2154    4.1497 C.3       6 UNK         0.0367 
     41 CB         24.7022   29.7696    3.9799 C.3       6 UNK        -0.1929 
     42 C          26.3257   31.6917    3.7342 C.2       6 UNK         0.5070 
     43 O          26.0763   32.5732    4.5571 O.2       6 UNK        -0.5237 
     44 N          26.7481   31.9343    2.4855 N.am      7 UNK        -0.4739 
     45 CA         27.0685   33.2587    1.9515 C.3       7 UNK         0.0276 
     46 CB         26.3090   33.4667    0.6308 C.3       7 UNK        -0.1927 
     47 C          28.5802   33.4206    1.7292 C.2       7 UNK         0.5013 
     48 O          29.1222   34.4854    2.0260 O.2       7 UNK        -0.5193 
     49 N          29.2339   32.3751    1.2031 N.am      8 UNK        -0.4253 
     50 CA         30.6443   32.3832    0.8049 C.3       8 UNK         0.0242 
     51 CB         30.8628   31.2908   -0.2570 C.3       8 UNK        -0.2000 
     52 C          31.6404   32.2020    1.9639 C.2       8 UNK         0.4948 
     53 O          32.8407   32.3581    1.7345 O.2       8 UNK        -0.5275 
     54 N          31.1622   31.8252    3.1595 N.am      9 UNK        -0.4246 
     55 CA         31.9048   31.4956    4.3880 C.3       9 UNK         0.0261 
     56 CB         32.7716   32.6727    4.8766 C.3       9 UNK        -0.1959 
     57 C          32.7251   30.1952    4.2999 C.2       9 UNK         0.5033 
     58 O          32.6904   29.4003    5.2410 O.2       9 UNK        -0.5390 
     59 N          33.4350   29.9947    3.1809 N.am      10 UNK        -0.4215 
     60 CA         34.2979   28.8548    2.8600 C.3       10 UNK         0.0240 
     61 CB         33.4437   27.5914    2.5959 C.3       10 UNK        -0.1982 
     62 C          35.3977   28.6752    3.9253 C.2       10 UNK         0.4970 
     63 O          36.2510   29.5539    4.0580 O.2       10 UNK        -0.4916 
     64 N          35.3507   27.5625    4.6640 N.am      11 UNK        -0.4279 
     65 CA         36.2232   27.2554    5.8056 C.3       11 UNK         0.1003 
     66 C          35.8634   28.0084    7.1219 C.2       11 UNK         0.5709 
     67 N          34.7588   28.7422    7.2022 N.am      11 UNK        -0.7358 
     68 O          36.6169   27.9381    8.0902 O.2       11 UNK        -0.4999 
     69 C69        36.3588   25.7211    6.0143 C.3       12 UNK        -0.0954 
     70 S70        34.7578   24.8654    6.2212 S.3       12 UNK        -0.2268 
     71 C71        34.4978   24.2196    4.5331 C.3       12 UNK         0.0203 
     72 H72        29.9443   21.4570   -3.9527 H         1 UNK         0.0888 
     73 H73        28.2922   22.0127   -4.2319 H         1 UNK         0.0888 
     74 H74        29.6248   22.6947   -5.1695 H         1 UNK         0.0888 
     75 H75        30.7800   22.2923   -2.0393 H         1 UNK         0.3017 
     76 H76        30.7397   25.0802   -1.4331 H         1 UNK         0.0873 
     77 H77        32.6781   24.0529   -0.7200 H         1 UNK         0.0745 
     78 H78        31.8462   24.3052    0.7676 H         1 UNK         0.0745 
     79 H79        31.4676   20.6440    2.1070 H         1 UNK         0.0705 
     80 H80        30.1048   21.5666    1.5391 H         1 UNK         0.0705 
     81 H81        33.5933   22.3979    2.7561 H         1 UNK         0.1334 
     82 H82        32.1556   25.3851    5.4894 H         1 UNK         0.1417 
     83 H83        29.3892   23.1470    3.1241 H         1 UNK         0.1562 
     84 H84        29.8384   25.7450    5.8136 H         1 UNK         0.0748 
     85 H85        28.8341   24.3467    5.5186 H         1 UNK         0.0748 
     86 H86        30.3756   27.5450    4.0960 H         1 UNK         0.0940 
     87 H87        30.4708   26.6839    2.5863 H         1 UNK         0.0940 
     88 H88        30.0236   29.0327    2.1515 H         1 UNK         0.0703 
     89 H89        28.4487   27.0216    1.1050 H         1 UNK         0.3081 
     90 H90        26.2092   28.8603   -0.9511 H         1 UNK         0.0719 
     91 H91        28.6331   27.1554   -1.7364 H         1 UNK         0.0809 
     92 H92        27.2558   27.5469   -2.7634 H         1 UNK         0.0809 
     93 H93        28.3568   28.8142   -2.2505 H         1 UNK         0.0809 
     94 H94        26.3939   26.1447   -0.9497 H         1 UNK         0.2990 
     95 H95        25.1679   24.8794    1.8632 H         1 UNK         0.0690 
     96 H96        23.0834   26.1872    1.9200 H         1 UNK         0.0788 
     97 H97        22.9127   26.0626    0.1751 H         1 UNK         0.0788 
     98 H98        22.7934   24.6214    1.1854 H         1 UNK         0.0788 
     99 H99        24.4054   24.5166   -0.9461 H         1 UNK         0.2993 
    100 H100       27.1783   24.2001    1.4139 H         1 UNK         0.0949 
    101 H101       25.9113   22.1307    1.9852 H         1 UNK         0.0767 
    102 H102       26.8512   21.2066    0.8217 H         1 UNK         0.0767 
    103 H103       27.6297   21.8916    2.2452 H         1 UNK         0.0767 
    104 H104       28.6540   22.4262   -0.4558 H         1 UNK         0.3013 
    105 H105       26.5871   28.6376    2.7885 H         1 UNK         0.3121 
    106 H106       26.4223   30.1428    5.2079 H         1 UNK         0.0774 
    107 H107       24.0299   30.4047    4.5583 H         1 UNK         0.0815 
    108 H108       24.3849   29.8213    2.9376 H         1 UNK         0.0815 
    109 H109       24.5570   28.7450    4.3229 H         1 UNK         0.0815 
    110 H110       26.9428   31.1437    1.8789 H         1 UNK         0.2987 
    111 H111       26.7547   34.0397    2.6479 H         1 UNK         0.0949 
    112 H112       26.5721   32.7127   -0.1124 H         1 UNK         0.0806 
    113 H113       25.2308   33.4211    0.7850 H         1 UNK         0.0806 
    114 H114       26.5334   34.4437    0.2003 H         1 UNK         0.0806 
    115 H115       28.7038   31.5400    0.9575 H         1 UNK         0.3010 
    116 H116       30.8644   33.3487    0.3443 H         1 UNK         0.0829 
    117 H117       31.8832   31.3159   -0.6418 H         1 UNK         0.0813 
    118 H118       30.6927   30.2925    0.1467 H         1 UNK         0.0813 
    119 H119       30.1948   31.4249   -1.1081 H         1 UNK         0.0813 
    120 H120       30.1657   31.6555    3.2308 H         1 UNK         0.3038 
    121 H121       31.1433   31.3259    5.1505 H         1 UNK         0.0769 
    122 H122       33.2140   32.4483    5.8481 H         1 UNK         0.0811 
    123 H123       32.1785   33.5799    4.9920 H         1 UNK         0.0811 
    124 H124       33.5928   32.8926    4.1941 H         1 UNK         0.0811 
    125 H125       33.4258   30.7565    2.5051 H         1 UNK         0.3204 
    126 H126       34.8109   29.1068    1.9307 H         1 UNK         0.0748 
    127 H127       34.0652   26.7520    2.2817 H         1 UNK         0.0771 
    128 H128       32.8785   27.2794    3.4745 H         1 UNK         0.0771 
    129 H129       32.7267   27.7692    1.7942 H         1 UNK         0.0771 
    130 H130       34.5816   26.9257    4.5246 H         1 UNK         0.2980 
    131 H131       37.2205   27.6162    5.5472 H         1 UNK         0.0545 
    132 H132       34.5548   29.2209    8.0642 H         1 UNK         0.3459 
    133 H133       34.1166   28.8269    6.4196 H         1 UNK         0.3459 
    134 H134       36.9806   25.5021    6.8842 H         1 UNK         0.0616 
    135 H135       36.8888   25.2828    5.1673 H         1 UNK         0.0616 
    136 H136       34.8719   24.9354    3.8015 H         1 UNK         0.0634 
    137 H137       35.1074   23.3213    4.4223 H         1 UNK         0.0634 
@<TRIPOS>BOND
     1    1    2 1    
     2    1   72 1    
     3    1   73 1    
     4    1   74 1    
     5    2    3 2    
     6    2    4 am   BACKBONE|DICT|INTERRES
     7    4    5 1    
     8    4   75 1    
     9    5    6 1    
    10    5   35 1    
    11    5   76 1    
    12    6    7 1    
    13    6   77 1    
    14    6   78 1    
    15    7    8 1    
    16    8    9 1    
    17    8   79 1    
    18    8   80 1    
    19    9   10 ar   
    20    9   14 ar   
    21   10   11 ar   
    22   10   81 1    
    23   11   12 ar   
    24   11   71 1    
    25   12   13 ar   
    26   12   82 1    
    27   13   14 ar   
    28   13   15 1    
    29   14   83 1    
    30   15   16 1    
    31   15   84 1    
    32   15   85 1    
    33   16   17 1    
    34   17   18 1    
    35   17   86 1    
    36   17   87 1    
    37   18   19 1    
    38   18   37 1    
    39   18   88 1    
    40   19   20 am   BACKBONE|DICT|INTERRES
    41   19   89 1    
    42   20   21 2    
    43   20   22 1    
    44   22   23 1    
    45   22   24 1    
    46   22   90 1    
    47   23   91 1    
    48   23   92 1    
    49   23   93 1    
    50   24   25 am   BACKBONE|DICT|INTERRES
    51   24   94 1    
    52   25   26 2    
    53   25   27 1    
    54   27   28 1    
    55   27   29 1    
    56   27   95 1    
    57   28   96 1    
    58   28   97 1    
    59   28   98 1    
    60   29   30 am   BACKBONE|DICT|INTERRES
    61   29   99 1    
    62   30   31 2    
    63   30   32 1    
    64   32   33 1    
    65   32   34 1    
    66   32  100 1    
    67   33  101 1    
    68   33  102 1    
    69   33  103 1    
    70   34   35 am   BACKBONE|DICT|INTERRES
    71   34  104 1    
    72   35   36 2    
    73   37   38 2    
    74   37   39 am   BACKBONE|DICT|INTERRES
    75   39   40 1    
    76   39  105 1    
    77   40   41 1    
    78   40   42 1    
    79   40  106 1    
    80   41  107 1    
    81   41  108 1    
    82   41  109 1    
    83   42   43 2    
    84   42   44 am   BACKBONE|DICT|INTERRES
    85   44   45 1    
    86   44  110 1    
    87   45   46 1    
    88   45   47 1    
    89   45  111 1    
    90   46  112 1    
    91   46  113 1    
    92   46  114 1    
    93   47   48 2    
    94   47   49 am   BACKBONE|DICT|INTERRES
    95   49   50 1    
    96   49  115 1    
    97   50   51 1    
    98   50   52 1    
    99   50  116 1    
   100   51  117 1    
   101   51  118 1    
   102   51  119 1    
   103   52   53 2    
   104   52   54 am   BACKBONE|DICT|INTERRES
   105   54   55 1    
   106   54  120 1    
   107   55   56 1    
   108   55   57 1    
   109   55  121 1    
   110   56  122 1    
   111   56  123 1    
   112   56  124 1    
   113   57   58 2    
   114   57   59 am   BACKBONE|DICT|INTERRES
   115   59   60 1    
   116   59  125 1    
   117   60   61 1    
   118   60   62 1    
   119   60  126 1    
   120   61  127 1    
   121   61  128 1    
   122   61  129 1    
   123   62   63 2    
   124   62   64 am   BACKBONE|DICT|INTERRES
   125   64   65 1    
   126   64  130 1    
   127   65   66 1    
   128   65   69 1    
   129   65  131 1    
   130   66   67 am   BACKBONE|DICT|INTERRES
   131   66   68 2    
   132   67  132 1    
   133   67  133 1    
   134   69   70 1    
   135   69  134 1    
   136   69  135 1    
   137   70   71 1    
   138   71  136 1    
   139   71  137 1    
@<TRIPOS>SUBSTRUCTURE
     1 UNK         1 GROUP             0       ****    0 ROOT    
