@<TRIPOS>MOLECULE
3R136
137   139    1
SMALL
USER_CHARGES


@<TRIPOS>ATOM
      1 CA         30.6460   23.4209   -3.8466 C.3       0 UNK        -0.1979 
      2 C          30.4926   23.3774   -2.3336 C.2       0 UNK         0.4864 
      3 O          30.6842   24.3964   -1.6726 O.2       0 UNK        -0.5359 
      4 N          30.1572   22.2030   -1.7831 N.am      1 UNK        -0.4318 
      5 CA         29.9239   21.9888   -0.3495 C.3       1 UNK         0.0824 
      6 C6         30.2067   20.5082    0.0219 C.3       12 UNK        -0.0944 
      7 S7         30.2635   20.1246    1.8072 S.3       12 UNK        -0.2672 
      8 C8         31.9463   20.6439    2.2896 C.3       12 UNK         0.0333 
      9 C9         32.0037   22.1404    2.5599 C.ar      12 UNK        -0.0807 
     10 C10        32.7154   22.9947    1.7118 C.ar      12 UNK        -0.0894 
     11 C11        32.6703   24.3806    1.8987 C.ar      12 UNK        -0.0804 
     12 C12        31.9287   24.9047    2.9629 C.ar      12 UNK        -0.0824 
     13 C13        31.2610   24.0561    3.8507 C.ar      12 UNK        -0.0762 
     14 C14        31.3041   22.6757    3.6450 C.ar      12 UNK        -0.0782 
     15 C15        30.4660   24.6261    5.0141 C.3       12 UNK         0.0230 
     16 S16        28.6967   24.6902    4.5994 S.3       12 UNK        -0.2608 
     17 C17        28.1949   26.2985    5.3010 C.3       12 UNK        -0.0989 
     18 CA         28.7485   27.5279    4.5315 C.3       5 UNK         0.0716 
     19 N          28.6794   27.3570    3.0763 N.am      5 UNK        -0.4135 
     20 C          29.1756   28.2056    2.1690 C.2       4 UNK         0.5031 
     21 O          29.7731   29.2417    2.4578 O.2       4 UNK        -0.5229 
     22 CA         28.8958   27.8975    0.6902 C.3       4 UNK         0.0329 
     23 CB         30.0673   27.1189    0.0832 C.3       4 UNK        -0.2001 
     24 N          27.6417   27.1803    0.4278 N.am      4 UNK        -0.4303 
     25 C          26.4154   27.5365    0.8337 C.2       3 UNK         0.5044 
     26 O          26.2021   28.5009    1.5716 O.2       3 UNK        -0.5152 
     27 CA         25.2184   26.6866    0.3642 C.3       3 UNK         0.0319 
     28 CB         24.6077   27.2849   -0.9175 C.3       3 UNK        -0.2001 
     29 N          25.4602   25.2400    0.2137 N.am      3 UNK        -0.4354 
     30 C          26.2693   24.6023   -0.6451 C.2       2 UNK         0.4964 
     31 O          27.0090   25.1709   -1.4509 O.2       2 UNK        -0.5047 
     32 CA         26.2239   23.0652   -0.6161 C.3       2 UNK         0.0288 
     33 CB         25.2694   22.5360   -1.6988 C.3       2 UNK        -0.2113 
     34 N          27.5554   22.4971   -0.8319 N.am      2 UNK        -0.4145 
     35 C          28.5285   22.4897    0.0914 C.2       1 UNK         0.5006 
     36 O          28.3589   22.8889    1.2440 O.2       1 UNK        -0.5103 
     37 C          28.0640   28.8219    5.0300 C.2       5 UNK         0.5055 
     38 O          28.4264   29.3120    6.0999 O.2       5 UNK        -0.5220 
     39 N          27.1052   29.3504    4.2552 N.am      6 UNK        -0.4450 
     40 CA         26.4616   30.6431    4.4809 C.3       6 UNK         0.0367 
     41 CB         24.9369   30.4495    4.5240 C.3       6 UNK        -0.1929 
     42 C          26.8413   31.6513    3.3851 C.2       6 UNK         0.5070 
     43 O          27.0662   32.8191    3.7015 O.2       6 UNK        -0.5237 
     44 N          26.8850   31.2032    2.1206 N.am      7 UNK        -0.4739 
     45 CA         27.0980   32.0605    0.9502 C.3       7 UNK         0.0276 
     46 CB         26.6731   31.3115   -0.3235 C.3       7 UNK        -0.1927 
     47 C          28.5325   32.5997    0.8177 C.2       7 UNK         0.5013 
     48 O          28.6982   33.7566    0.4286 O.2       7 UNK        -0.5193 
     49 N          29.5335   31.7688    1.1377 N.am      8 UNK        -0.4253 
     50 CA         30.9482   32.1515    1.1713 C.3       8 UNK         0.0242 
     51 CB         31.8097   31.0527    0.5236 C.3       8 UNK        -0.2000 
     52 C          31.4011   32.4164    2.6131 C.2       8 UNK         0.4948 
     53 O          32.2007   33.3263    2.8334 O.2       8 UNK        -0.5275 
     54 N          30.8934   31.6176    3.5650 N.am      9 UNK        -0.4246 
     55 CA         31.0523   31.6909    5.0262 C.3       9 UNK         0.0261 
     56 CB         30.5006   33.0178    5.5815 C.3       9 UNK        -0.1959 
     57 C          32.4718   31.4147    5.5561 C.2       9 UNK         0.5033 
     58 O          32.6035   30.8057    6.6182 O.2       9 UNK        -0.5390 
     59 N          33.5047   31.8448    4.8217 N.am      10 UNK        -0.4215 
     60 CA         34.9160   31.5725    5.1062 C.3       10 UNK         0.0240 
     61 CB         35.7944   32.4838    4.2340 C.3       10 UNK        -0.1982 
     62 C          35.2926   30.0948    4.8956 C.2       10 UNK         0.4970 
     63 O          36.1737   29.5921    5.5938 O.2       10 UNK        -0.4916 
     64 N          34.6221   29.4333    3.9435 N.am      11 UNK        -0.4279 
     65 CA         34.7296   27.9935    3.6879 C.3       11 UNK         0.1003 
     66 C          34.0066   27.1769    4.7930 C.2       11 UNK         0.5709 
     67 N          34.6350   26.1325    5.3144 N.am      11 UNK        -0.7358 
     68 O          32.8675   27.4670    5.1524 O.2       11 UNK        -0.4999 
     69 C69        34.2041   27.6574    2.2679 C.3       12 UNK        -0.0954 
     70 S70        34.8644   26.0789    1.6297 S.3       12 UNK        -0.2268 
     71 C71        33.3806   25.3024    0.9159 C.3       12 UNK         0.0203 
     72 H72        29.9399   24.1330   -4.2728 H         1 UNK         0.0888 
     73 H73        31.6537   23.7396   -4.1117 H         1 UNK         0.0888 
     74 H74        30.4662   22.4484   -4.3046 H         1 UNK         0.0888 
     75 H75        30.0376   21.3943   -2.3770 H         1 UNK         0.3017 
     76 H76        30.6379   22.6105    0.1861 H         1 UNK         0.0873 
     77 H77        29.4555   19.8599   -0.4330 H         1 UNK         0.0745 
     78 H78        31.1601   20.1971   -0.4085 H         1 UNK         0.0745 
     79 H79        32.2326   20.1096    3.1965 H         1 UNK         0.0705 
     80 H80        32.6626   20.3498    1.5209 H         1 UNK         0.0705 
     81 H81        33.2631   22.5836    0.8747 H         1 UNK         0.1334 
     82 H82        31.8652   25.9736    3.1027 H         1 UNK         0.1417 
     83 H83        30.7543   22.0186    4.3052 H         1 UNK         0.1562 
     84 H84        30.8398   25.6167    5.2725 H         1 UNK         0.0748 
     85 H85        30.6046   24.0087    5.9028 H         1 UNK         0.0748 
     86 H86        28.4995   26.3372    6.3489 H         1 UNK         0.0940 
     87 H87        27.1029   26.3116    5.3059 H         1 UNK         0.0940 
     88 H88        29.8079   27.6328    4.7744 H         1 UNK         0.0703 
     89 H89        28.2193   26.5182    2.7527 H         1 UNK         0.3081 
     90 H90        28.8312   28.8543    0.1719 H         1 UNK         0.0719 
     91 H91        30.1762   26.1330    0.5382 H         1 UNK         0.0809 
     92 H92        29.9360   26.9773   -0.9898 H         1 UNK         0.0809 
     93 H93        31.0052   27.6575    0.2236 H         1 UNK         0.0809 
     94 H94        27.6917   26.3964   -0.2188 H         1 UNK         0.2990 
     95 H95        24.4660   26.7719    1.1499 H         1 UNK         0.0690 
     96 H96        23.6996   26.7567   -1.2082 H         1 UNK         0.0788 
     97 H97        25.3019   27.2462   -1.7575 H         1 UNK         0.0788 
     98 H98        24.3394   28.3320   -0.7689 H         1 UNK         0.0788 
     99 H99        24.9196   24.6645    0.8454 H         1 UNK         0.2993 
    100 H100       25.8606   22.7358    0.3601 H         1 UNK         0.0949 
    101 H101       25.2069   21.4478   -1.6758 H         1 UNK         0.0767 
    102 H102       24.2593   22.9208   -1.5511 H         1 UNK         0.0767 
    103 H103       25.5879   22.8337   -2.6989 H         1 UNK         0.0767 
    104 H104       27.7815   22.2128   -1.7729 H         1 UNK         0.3013 
    105 H105       26.8667   28.8789    3.3879 H         1 UNK         0.3121 
    106 H106       26.7761   31.0669    5.4372 H         1 UNK         0.0774 
    107 H107       24.5556   30.0234    3.5949 H         1 UNK         0.0815 
    108 H108       24.4268   31.4007    4.6819 H         1 UNK         0.0815 
    109 H109       24.6467   29.7869    5.3394 H         1 UNK         0.0815 
    110 H110       26.6444   30.2328    1.9316 H         1 UNK         0.2987 
    111 H111       26.4410   32.9271    1.0557 H         1 UNK         0.0949 
    112 H112       27.2788   30.4233   -0.4973 H         1 UNK         0.0806 
    113 H113       25.6303   30.9979   -0.2695 H         1 UNK         0.0806 
    114 H114       26.7734   31.9500   -1.2023 H         1 UNK         0.0806 
    115 H115       29.3121   30.8449    1.4930 H         1 UNK         0.3010 
    116 H116       31.1022   33.0710    0.6024 H         1 UNK         0.0829 
    117 H117       31.7753   30.1154    1.0783 H         1 UNK         0.0813 
    118 H118       31.4868   30.8481   -0.4972 H         1 UNK         0.0813 
    119 H119       32.8553   31.3600    0.4760 H         1 UNK         0.0813 
    120 H120       30.3471   30.8213    3.2429 H         1 UNK         0.3038 
    121 H121       30.4259   30.8906    5.4199 H         1 UNK         0.0769 
    122 H122       30.5261   33.0231    6.6720 H         1 UNK         0.0811 
    123 H123       31.0792   33.8764    5.2396 H         1 UNK         0.0811 
    124 H124       29.4638   33.1701    5.2812 H         1 UNK         0.0811 
    125 H125       33.2830   32.4053    4.0004 H         1 UNK         0.3204 
    126 H126       35.1033   31.8154    6.1543 H         1 UNK         0.0748 
    127 H127       36.8532   32.3179    4.4384 H         1 UNK         0.0771 
    128 H128       35.6343   32.3029    3.1702 H         1 UNK         0.0771 
    129 H129       35.5890   33.5366    4.4292 H         1 UNK         0.0771 
    130 H130       33.8898   29.9193    3.4505 H         1 UNK         0.2980 
    131 H131       35.7934   27.7475    3.7179 H         1 UNK         0.0545 
    132 H132       35.5590   25.8745    5.0056 H         1 UNK         0.3459 
    133 H133       34.1713   25.5854    6.0215 H         1 UNK         0.3459 
    134 H134       34.5259   28.4254    1.5626 H         1 UNK         0.0616 
    135 H135       33.1137   27.6721    2.2367 H         1 UNK         0.0616 
    136 H136       33.6861   24.7412    0.0314 H         1 UNK         0.0634 
    137 H137       32.6945   26.0658    0.5534 H         1 UNK         0.0634 
@<TRIPOS>BOND
     1    1    2 1    
     2    1   72 1    
     3    1   73 1    
     4    1   74 1    
     5    2    3 2    
     6    2    4 am   BACKBONE|DICT|INTERRES
     7    4    5 1    
     8    4   75 1    
     9    5    6 1    
    10    5   35 1    
    11    5   76 1    
    12    6    7 1    
    13    6   77 1    
    14    6   78 1    
    15    7    8 1    
    16    8    9 1    
    17    8   79 1    
    18    8   80 1    
    19    9   10 ar   
    20    9   14 ar   
    21   10   11 ar   
    22   10   81 1    
    23   11   12 ar   
    24   11   71 1    
    25   12   13 ar   
    26   12   82 1    
    27   13   14 ar   
    28   13   15 1    
    29   14   83 1    
    30   15   16 1    
    31   15   84 1    
    32   15   85 1    
    33   16   17 1    
    34   17   18 1    
    35   17   86 1    
    36   17   87 1    
    37   18   19 1    
    38   18   37 1    
    39   18   88 1    
    40   19   20 am   BACKBONE|DICT|INTERRES
    41   19   89 1    
    42   20   21 2    
    43   20   22 1    
    44   22   23 1    
    45   22   24 1    
    46   22   90 1    
    47   23   91 1    
    48   23   92 1    
    49   23   93 1    
    50   24   25 am   BACKBONE|DICT|INTERRES
    51   24   94 1    
    52   25   26 2    
    53   25   27 1    
    54   27   28 1    
    55   27   29 1    
    56   27   95 1    
    57   28   96 1    
    58   28   97 1    
    59   28   98 1    
    60   29   30 am   BACKBONE|DICT|INTERRES
    61   29   99 1    
    62   30   31 2    
    63   30   32 1    
    64   32   33 1    
    65   32   34 1    
    66   32  100 1    
    67   33  101 1    
    68   33  102 1    
    69   33  103 1    
    70   34   35 am   BACKBONE|DICT|INTERRES
    71   34  104 1    
    72   35   36 2    
    73   37   38 2    
    74   37   39 am   BACKBONE|DICT|INTERRES
    75   39   40 1    
    76   39  105 1    
    77   40   41 1    
    78   40   42 1    
    79   40  106 1    
    80   41  107 1    
    81   41  108 1    
    82   41  109 1    
    83   42   43 2    
    84   42   44 am   BACKBONE|DICT|INTERRES
    85   44   45 1    
    86   44  110 1    
    87   45   46 1    
    88   45   47 1    
    89   45  111 1    
    90   46  112 1    
    91   46  113 1    
    92   46  114 1    
    93   47   48 2    
    94   47   49 am   BACKBONE|DICT|INTERRES
    95   49   50 1    
    96   49  115 1    
    97   50   51 1    
    98   50   52 1    
    99   50  116 1    
   100   51  117 1    
   101   51  118 1    
   102   51  119 1    
   103   52   53 2    
   104   52   54 am   BACKBONE|DICT|INTERRES
   105   54   55 1    
   106   54  120 1    
   107   55   56 1    
   108   55   57 1    
   109   55  121 1    
   110   56  122 1    
   111   56  123 1    
   112   56  124 1    
   113   57   58 2    
   114   57   59 am   BACKBONE|DICT|INTERRES
   115   59   60 1    
   116   59  125 1    
   117   60   61 1    
   118   60   62 1    
   119   60  126 1    
   120   61  127 1    
   121   61  128 1    
   122   61  129 1    
   123   62   63 2    
   124   62   64 am   BACKBONE|DICT|INTERRES
   125   64   65 1    
   126   64  130 1    
   127   65   66 1    
   128   65   69 1    
   129   65  131 1    
   130   66   67 am   BACKBONE|DICT|INTERRES
   131   66   68 2    
   132   67  132 1    
   133   67  133 1    
   134   69   70 1    
   135   69  134 1    
   136   69  135 1    
   137   70   71 1    
   138   71  136 1    
   139   71  137 1    
@<TRIPOS>SUBSTRUCTURE
     1 UNK         1 GROUP             0       ****    0 ROOT    
