@<TRIPOS>MOLECULE
3R136
137   139    1
SMALL
USER_CHARGES


@<TRIPOS>ATOM
      1 CA         27.0624   17.9764    3.5764 C.3       0 UNK        -0.1979 
      2 C          28.1677   18.8789    3.0477 C.2       0 UNK         0.4864 
      3 O          29.2672   18.3985    2.7662 O.2       0 UNK        -0.5359 
      4 N          27.8878   20.1821    2.9202 N.am      1 UNK        -0.4318 
      5 CA         28.8095   21.1901    2.3862 C.3       1 UNK         0.0824 
      6 C6         28.3259   22.6284    2.6916 C.3       12 UNK        -0.0944 
      7 S7         28.2513   22.9825    4.4787 S.3       12 UNK        -0.2672 
      8 C8         29.8396   23.8329    4.7490 C.3       12 UNK         0.0333 
      9 C9         29.8084   25.2855    4.2916 C.ar      12 UNK        -0.0807 
     10 C10        30.3235   25.6486    3.0442 C.ar      12 UNK        -0.0894 
     11 C11        30.3523   26.9883    2.6497 C.ar      12 UNK        -0.0804 
     12 C12        29.8664   27.9724    3.5158 C.ar      12 UNK        -0.0824 
     13 C13        29.3157   27.6211    4.7538 C.ar      12 UNK        -0.0762 
     14 C14        29.2972   26.2752    5.1358 C.ar      12 UNK        -0.0782 
     15 C15        28.7510   28.6767    5.7018 C.3       12 UNK         0.0230 
     16 S16        27.6965   29.9351    4.8998 S.3       12 UNK        -0.2608 
     17 C17        26.5043   28.9398    3.9334 C.3       12 UNK        -0.0989 
     18 CA         26.6655   29.1956    2.4092 C.3       5 UNK         0.0716 
     19 N          26.1730   28.0726    1.6080 N.am      5 UNK        -0.4135 
     20 C          26.5919   27.7782    0.3705 C.2       4 UNK         0.5031 
     21 O          27.4413   28.4338   -0.2410 O.2       4 UNK        -0.5229 
     22 CA         25.9033   26.5902   -0.3214 C.3       4 UNK         0.0329 
     23 CB         24.6817   27.0747   -1.1197 C.3       4 UNK        -0.2001 
     24 N          26.8146   25.8816   -1.2230 N.am      4 UNK        -0.4303 
     25 C          27.8690   25.1671   -0.8133 C.2       3 UNK         0.5044 
     26 O          28.1621   24.9897    0.3714 O.2       3 UNK        -0.5152 
     27 CA         28.7438   24.5427   -1.9059 C.3       3 UNK         0.0319 
     28 CB         29.7122   25.5758   -2.5094 C.3       3 UNK        -0.2001 
     29 N          29.4971   23.4526   -1.2980 N.am      3 UNK        -0.4354 
     30 C          29.9257   22.3440   -1.9091 C.2       2 UNK         0.4964 
     31 O          29.8029   22.1365   -3.1169 O.2       2 UNK        -0.5047 
     32 CA         30.6082   21.2801   -1.0275 C.3       2 UNK         0.0288 
     33 CB         32.1377   21.3983   -1.1364 C.3       2 UNK        -0.2113 
     34 N          30.2236   21.3435    0.3884 N.am      2 UNK        -0.4145 
     35 C          29.0164   21.0086    0.8675 C.2       1 UNK         0.5006 
     36 O          28.0861   20.6082    0.1618 O.2       1 UNK        -0.5103 
     37 C          26.0410   30.5267    1.9332 C.2       5 UNK         0.5055 
     38 O          25.2352   31.1307    2.6441 O.2       5 UNK        -0.5220 
     39 N          26.4192   30.9559    0.7213 N.am      6 UNK        -0.4450 
     40 CA         26.0905   32.2697    0.1575 C.3       6 UNK         0.0367 
     41 CB         26.4231   32.2767   -1.3429 C.3       6 UNK        -0.1929 
     42 C          26.8249   33.4130    0.8834 C.2       6 UNK         0.5070 
     43 O          26.3076   34.5282    0.9501 O.2       6 UNK        -0.5237 
     44 N          28.0016   33.1008    1.4342 N.am      7 UNK        -0.4739 
     45 CA         28.7949   33.9268    2.3323 C.3       7 UNK         0.0276 
     46 CB         29.7357   34.8340    1.5204 C.3       7 UNK        -0.1927 
     47 C          29.5863   32.9721    3.2325 C.2       7 UNK         0.5013 
     48 O          29.8717   31.8435    2.8170 O.2       7 UNK        -0.5193 
     49 N          29.9581   33.4401    4.4302 N.am      8 UNK        -0.4253 
     50 CA         30.7472   32.6943    5.4167 C.3       8 UNK         0.0242 
     51 CB         30.4903   33.2862    6.8153 C.3       8 UNK        -0.2000 
     52 C          32.2442   32.6642    5.0467 C.2       8 UNK         0.4948 
     53 O          33.0820   33.1797    5.7903 O.2       8 UNK        -0.5275 
     54 N          32.5415   32.0883    3.8779 N.am      9 UNK        -0.4246 
     55 CA         33.8831   31.8917    3.3338 C.3       9 UNK         0.0261 
     56 CB         33.7625   31.7473    1.8057 C.3       9 UNK        -0.1959 
     57 C          34.5862   30.6769    3.9686 C.2       9 UNK         0.5033 
     58 O          33.9869   29.9502    4.7662 O.2       9 UNK        -0.5390 
     59 N          35.8502   30.4620    3.5741 N.am      10 UNK        -0.4215 
     60 CA         36.7469   29.4004    4.0564 C.3       10 UNK         0.0240 
     61 CB         38.1200   29.5645    3.3832 C.3       10 UNK        -0.1982 
     62 C          36.2333   27.9559    3.8810 C.2       10 UNK         0.4970 
     63 O          36.7413   27.0583    4.5546 O.2       10 UNK        -0.4916 
     64 N          35.2400   27.7554    3.0064 N.am      11 UNK        -0.4279 
     65 CA         34.4548   26.5191    2.8863 C.3       11 UNK         0.1003 
     66 C          33.6198   26.1524    4.1491 C.2       11 UNK         0.5709 
     67 N          33.2925   27.0929    5.0290 N.am      11 UNK        -0.7358 
     68 O          33.2955   24.9835    4.3443 O.2       11 UNK        -0.4999 
     69 C69        33.5944   26.5119    1.5920 C.3       12 UNK        -0.0954 
     70 S70        32.5841   28.0196    1.3567 S.3       12 UNK        -0.2268 
     71 C71        30.8865   27.3701    1.2787 C.3       12 UNK         0.0203 
     72 H72        26.1522   18.5336    3.7979 H         1 UNK         0.0888 
     73 H73        26.8201   17.2101    2.8406 H         1 UNK         0.0888 
     74 H74        27.3874   17.4811    4.4910 H         1 UNK         0.0888 
     75 H75        26.9667   20.5198    3.1590 H         1 UNK         0.3017 
     76 H76        29.7754   21.0426    2.8747 H         1 UNK         0.0873 
     77 H77        28.9807   23.3591    2.2200 H         1 UNK         0.0745 
     78 H78        27.3354   22.8014    2.2662 H         1 UNK         0.0745 
     79 H79        30.0778   23.7958    5.8130 H         1 UNK         0.0705 
     80 H80        30.6403   23.2889    4.2453 H         1 UNK         0.0705 
     81 H81        30.7181   24.8901    2.3837 H         1 UNK         0.1334 
     82 H82        29.9028   29.0118    3.2179 H         1 UNK         0.1417 
     83 H83        28.8919   25.9927    6.0980 H         1 UNK         0.1562 
     84 H84        29.5826   29.1821    6.1943 H         1 UNK         0.0748 
     85 H85        28.1664   28.2048    6.4930 H         1 UNK         0.0748 
     86 H86        25.4901   29.1504    4.2777 H         1 UNK         0.0940 
     87 H87        26.6703   27.8850    4.1563 H         1 UNK         0.0940 
     88 H88        27.7360   29.2753    2.2094 H         1 UNK         0.0703 
     89 H89        25.4394   27.5159    2.0219 H         1 UNK         0.3081 
     90 H90        25.5669   25.8852    0.4422 H         1 UNK         0.0719 
     91 H91        24.9654   27.7786   -1.9035 H         1 UNK         0.0809 
     92 H92        24.1575   26.2419   -1.5891 H         1 UNK         0.0809 
     93 H93        23.9653   27.5818   -0.4719 H         1 UNK         0.0809 
     94 H94        26.6654   26.0110   -2.2130 H         1 UNK         0.2990 
     95 H95        28.0910   24.1452   -2.6862 H         1 UNK         0.0690 
     96 H96        30.3261   25.1322   -3.2935 H         1 UNK         0.0788 
     97 H97        30.3819   25.9890   -1.7547 H         1 UNK         0.0788 
     98 H98        29.1697   26.4100   -2.9560 H         1 UNK         0.0788 
     99 H99        29.5786   23.5310   -0.2924 H         1 UNK         0.2993 
    100 H100       30.3115   20.3024   -1.4142 H         1 UNK         0.0949 
    101 H101       32.6384   20.6012   -0.5862 H         1 UNK         0.0767 
    102 H102       32.4618   21.3241   -2.1756 H         1 UNK         0.0767 
    103 H103       32.4982   22.3530   -0.7506 H         1 UNK         0.0767 
    104 H104       30.9360   21.6569    1.0321 H         1 UNK         0.3013 
    105 H105       27.0203   30.3456    0.1743 H         1 UNK         0.3121 
    106 H106       25.0174   32.4355    0.2744 H         1 UNK         0.0774 
    107 H107       26.1661   33.2362   -1.7938 H         1 UNK         0.0815 
    108 H108       27.4854   32.1060   -1.5223 H         1 UNK         0.0815 
    109 H109       25.8642   31.5080   -1.8769 H         1 UNK         0.0815 
    110 H110       28.3406   32.1487    1.3633 H         1 UNK         0.2987 
    111 H111       28.1307   34.5329    2.9528 H         1 UNK         0.0949 
    112 H112       30.4177   34.2521    0.8989 H         1 UNK         0.0806 
    113 H113       29.1754   35.5026    0.8666 H         1 UNK         0.0806 
    114 H114       30.3432   35.4576    2.1774 H         1 UNK         0.0806 
    115 H115       29.7198   34.3903    4.6760 H         1 UNK         0.3010 
    116 H116       30.4009   31.6580    5.4299 H         1 UNK         0.0829 
    117 H117       29.4338   33.2339    7.0794 H         1 UNK         0.0813 
    118 H118       31.0402   32.7344    7.5789 H         1 UNK         0.0813 
    119 H119       30.8023   34.3294    6.8777 H         1 UNK         0.0813 
    120 H120       31.7682   31.7030    3.3439 H         1 UNK         0.3038 
    121 H121       34.4835   32.7769    3.5543 H         1 UNK         0.0769 
    122 H122       33.1548   30.8861    1.5294 H         1 UNK         0.0811 
    123 H123       34.7359   31.6294    1.3289 H         1 UNK         0.0811 
    124 H124       33.2989   32.6301    1.3645 H         1 UNK         0.0811 
    125 H125       36.2537   31.1070    2.9097 H         1 UNK         0.3204 
    126 H126       36.8738   29.5561    5.1296 H         1 UNK         0.0748 
    127 H127       38.5550   30.5410    3.5975 H         1 UNK         0.0771 
    128 H128       38.8259   28.8144    3.7434 H         1 UNK         0.0771 
    129 H129       38.0535   29.4548    2.3000 H         1 UNK         0.0771 
    130 H130       34.8692   28.5500    2.5082 H         1 UNK         0.2980 
    131 H131       35.1795   25.7096    2.7803 H         1 UNK         0.0545 
    132 H132       32.7504   26.8382    5.8372 H         1 UNK         0.3459 
    133 H133       33.5485   28.0641    4.8756 H         1 UNK         0.3459 
    134 H134       32.9623   25.6236    1.5483 H         1 UNK         0.0616 
    135 H135       34.2556   26.4359    0.7277 H         1 UNK         0.0616 
    136 H136       30.8492   26.5189    0.5976 H         1 UNK         0.0634 
    137 H137       30.2391   28.1328    0.8430 H         1 UNK         0.0634 
@<TRIPOS>BOND
     1    1    2 1    
     2    1   72 1    
     3    1   73 1    
     4    1   74 1    
     5    2    3 2    
     6    2    4 am   BACKBONE|DICT|INTERRES
     7    4    5 1    
     8    4   75 1    
     9    5    6 1    
    10    5   35 1    
    11    5   76 1    
    12    6    7 1    
    13    6   77 1    
    14    6   78 1    
    15    7    8 1    
    16    8    9 1    
    17    8   79 1    
    18    8   80 1    
    19    9   10 ar   
    20    9   14 ar   
    21   10   11 ar   
    22   10   81 1    
    23   11   12 ar   
    24   11   71 1    
    25   12   13 ar   
    26   12   82 1    
    27   13   14 ar   
    28   13   15 1    
    29   14   83 1    
    30   15   16 1    
    31   15   84 1    
    32   15   85 1    
    33   16   17 1    
    34   17   18 1    
    35   17   86 1    
    36   17   87 1    
    37   18   19 1    
    38   18   37 1    
    39   18   88 1    
    40   19   20 am   BACKBONE|DICT|INTERRES
    41   19   89 1    
    42   20   21 2    
    43   20   22 1    
    44   22   23 1    
    45   22   24 1    
    46   22   90 1    
    47   23   91 1    
    48   23   92 1    
    49   23   93 1    
    50   24   25 am   BACKBONE|DICT|INTERRES
    51   24   94 1    
    52   25   26 2    
    53   25   27 1    
    54   27   28 1    
    55   27   29 1    
    56   27   95 1    
    57   28   96 1    
    58   28   97 1    
    59   28   98 1    
    60   29   30 am   BACKBONE|DICT|INTERRES
    61   29   99 1    
    62   30   31 2    
    63   30   32 1    
    64   32   33 1    
    65   32   34 1    
    66   32  100 1    
    67   33  101 1    
    68   33  102 1    
    69   33  103 1    
    70   34   35 am   BACKBONE|DICT|INTERRES
    71   34  104 1    
    72   35   36 2    
    73   37   38 2    
    74   37   39 am   BACKBONE|DICT|INTERRES
    75   39   40 1    
    76   39  105 1    
    77   40   41 1    
    78   40   42 1    
    79   40  106 1    
    80   41  107 1    
    81   41  108 1    
    82   41  109 1    
    83   42   43 2    
    84   42   44 am   BACKBONE|DICT|INTERRES
    85   44   45 1    
    86   44  110 1    
    87   45   46 1    
    88   45   47 1    
    89   45  111 1    
    90   46  112 1    
    91   46  113 1    
    92   46  114 1    
    93   47   48 2    
    94   47   49 am   BACKBONE|DICT|INTERRES
    95   49   50 1    
    96   49  115 1    
    97   50   51 1    
    98   50   52 1    
    99   50  116 1    
   100   51  117 1    
   101   51  118 1    
   102   51  119 1    
   103   52   53 2    
   104   52   54 am   BACKBONE|DICT|INTERRES
   105   54   55 1    
   106   54  120 1    
   107   55   56 1    
   108   55   57 1    
   109   55  121 1    
   110   56  122 1    
   111   56  123 1    
   112   56  124 1    
   113   57   58 2    
   114   57   59 am   BACKBONE|DICT|INTERRES
   115   59   60 1    
   116   59  125 1    
   117   60   61 1    
   118   60   62 1    
   119   60  126 1    
   120   61  127 1    
   121   61  128 1    
   122   61  129 1    
   123   62   63 2    
   124   62   64 am   BACKBONE|DICT|INTERRES
   125   64   65 1    
   126   64  130 1    
   127   65   66 1    
   128   65   69 1    
   129   65  131 1    
   130   66   67 am   BACKBONE|DICT|INTERRES
   131   66   68 2    
   132   67  132 1    
   133   67  133 1    
   134   69   70 1    
   135   69  134 1    
   136   69  135 1    
   137   70   71 1    
   138   71  136 1    
   139   71  137 1    
@<TRIPOS>SUBSTRUCTURE
     1 UNK         1 GROUP             0       ****    0 ROOT    
