@<TRIPOS>MOLECULE
3R136
137   139    1
SMALL
USER_CHARGES


@<TRIPOS>ATOM
      1 CA         28.3211   28.6186   -1.1388 C.3       0 UNK        -0.1979 
      2 C          28.3583   27.2084   -0.5721 C.2       0 UNK         0.4864 
      3 O          27.5045   26.8549    0.2459 O.2       0 UNK        -0.5359 
      4 N          29.3415   26.4060   -1.0058 N.am      1 UNK        -0.4318 
      5 CA         29.5575   25.0111   -0.6022 C.3       1 UNK         0.0824 
      6 C6         30.8514   24.4103   -1.2076 C.3       12 UNK        -0.0944 
      7 S7         32.3517   25.3175   -0.7128 S.3       12 UNK        -0.2672 
      8 C8         33.1396   24.1364    0.4249 C.3       12 UNK         0.0333 
      9 C9         32.4453   24.1012    1.7781 C.ar      12 UNK        -0.0807 
     10 C10        32.7352   25.0834    2.7293 C.ar      12 UNK        -0.0894 
     11 C11        32.1359   25.0479    3.9907 C.ar      12 UNK        -0.0804 
     12 C12        31.2466   24.0166    4.3006 C.ar      12 UNK        -0.0824 
     13 C13        30.9395   23.0317    3.3558 C.ar      12 UNK        -0.0762 
     14 C14        31.5418   23.0798    2.0939 C.ar      12 UNK        -0.0782 
     15 C15        29.9865   21.8973    3.7154 C.3       12 UNK         0.0230 
     16 S16        28.2797   22.1997    3.1486 S.3       12 UNK        -0.2608 
     17 C17        27.8259   23.6908    4.0962 C.3       12 UNK        -0.0989 
     18 CA         27.7526   24.9343    3.1653 C.3       5 UNK         0.0716 
     19 N          26.5178   24.9885    2.3651 N.am      5 UNK        -0.4135 
     20 C          25.2889   25.2400    2.8468 C.2       4 UNK         0.5031 
     21 O          25.0332   25.2812    4.0517 O.2       4 UNK        -0.5229 
     22 CA         24.1476   25.5327    1.8569 C.3       4 UNK         0.0329 
     23 CB         23.2963   26.7316    2.3372 C.3       4 UNK        -0.2001 
     24 N          24.5962   25.7673    0.4794 N.am      4 UNK        -0.4303 
     25 C          23.7826   25.6658   -0.5828 C.2       3 UNK         0.5044 
     26 O          22.6080   25.2990   -0.5185 O.2       3 UNK        -0.5152 
     27 CA         24.3698   26.0381   -1.9520 C.3       3 UNK         0.0319 
     28 CB         24.6829   27.5419   -2.0343 C.3       3 UNK        -0.2001 
     29 N          25.5622   25.2546   -2.2675 N.am      3 UNK        -0.4354 
     30 C          25.5605   23.9393   -2.5340 C.2       2 UNK         0.4964 
     31 O          24.5409   23.2510   -2.5893 O.2       2 UNK        -0.5047 
     32 CA         26.9218   23.2729   -2.8009 C.3       2 UNK         0.0288 
     33 CB         27.1323   23.0623   -4.3096 C.3       2 UNK        -0.2113 
     34 N          28.0570   24.0248   -2.2608 N.am      2 UNK        -0.4145 
     35 C          28.3394   24.1389   -0.9552 C.2       1 UNK         0.5006 
     36 O          27.6599   23.6393   -0.0592 O.2       1 UNK        -0.5103 
     37 C          27.9884   26.2816    3.8863 C.2       5 UNK         0.5055 
     38 O          28.1965   26.3179    5.1008 O.2       5 UNK        -0.5220 
     39 N          27.8979   27.3713    3.1122 N.am      6 UNK        -0.4450 
     40 CA         27.9458   28.7510    3.5901 C.3       6 UNK         0.0367 
     41 CB         26.5094   29.2575    3.8241 C.3       6 UNK        -0.1929 
     42 C          28.7352   29.6173    2.6000 C.2       6 UNK         0.5070 
     43 O          28.2595   30.6684    2.1701 O.2       6 UNK        -0.5237 
     44 N          29.9448   29.1655    2.2516 N.am      7 UNK        -0.4739 
     45 CA         30.8858   29.8076    1.3270 C.3       7 UNK         0.0276 
     46 CB         31.8501   28.7317    0.7971 C.3       7 UNK        -0.1927 
     47 C          31.6239   31.0256    1.9274 C.2       7 UNK         0.5013 
     48 O          32.8265   31.1862    1.7054 O.2       7 UNK        -0.5193 
     49 N          30.8874   31.8711    2.6630 N.am      8 UNK        -0.4253 
     50 CA         31.3079   33.1340    3.2794 C.3       8 UNK         0.0242 
     51 CB         31.3476   34.2444    2.2047 C.3       8 UNK        -0.2000 
     52 C          32.6129   32.9932    4.0886 C.2       8 UNK         0.4948 
     53 O          32.6419   32.2353    5.0603 O.2       8 UNK        -0.5275 
     54 N          33.6736   33.6905    3.6597 N.am      9 UNK        -0.4246 
     55 CA         35.0019   33.7081    4.2771 C.3       9 UNK         0.0261 
     56 CB         35.8763   34.7443    3.5517 C.3       9 UNK        -0.1959 
     57 C          35.7171   32.3446    4.3289 C.2       9 UNK         0.5033 
     58 O          36.6219   32.1891    5.1505 O.2       9 UNK        -0.5390 
     59 N          35.3146   31.3816    3.4843 N.am      10 UNK        -0.4215 
     60 CA         35.8250   30.0083    3.5309 C.3       10 UNK         0.0240 
     61 CB         35.5608   29.3057    2.1904 C.3       10 UNK        -0.1982 
     62 C          35.2387   29.1927    4.6982 C.2       10 UNK         0.4970 
     63 O          35.8680   28.2155    5.1060 O.2       10 UNK        -0.4916 
     64 N          34.0689   29.5967    5.2125 N.am      11 UNK        -0.4279 
     65 CA         33.4105   28.9829    6.3745 C.3       11 UNK         0.1003 
     66 C          33.5633   29.8480    7.6524 C.2       11 UNK         0.5709 
     67 N          33.5294   31.1716    7.5545 N.am      11 UNK        -0.7358 
     68 O          33.7255   29.3112    8.7456 O.2       11 UNK        -0.4999 
     69 C69        31.9147   28.6727    6.1063 C.3       12 UNK        -0.0954 
     70 S70        31.6149   27.6728    4.6127 S.3       12 UNK        -0.2268 
     71 C71        32.4574   26.1180    5.0204 C.3       12 UNK         0.0203 
     72 H72        27.9836   29.3237   -0.3799 H         1 UNK         0.0888 
     73 H73        29.3041   28.9381   -1.4836 H         1 UNK         0.0888 
     74 H74        27.6313   28.6694   -1.9801 H         1 UNK         0.0888 
     75 H75        30.0173   26.7685   -1.6634 H         1 UNK         0.3017 
     76 H76        29.6653   25.0008    0.4829 H         1 UNK         0.0873 
     77 H77        30.8135   24.4198   -2.2983 H         1 UNK         0.0745 
     78 H78        30.9557   23.3615   -0.9234 H         1 UNK         0.0745 
     79 H79        33.1659   23.1437   -0.0272 H         1 UNK         0.0705 
     80 H80        34.1814   24.4301    0.5624 H         1 UNK         0.0705 
     81 H81        33.4287   25.8779    2.4884 H         1 UNK         0.1334 
     82 H82        30.7962   23.9816    5.2829 H         1 UNK         0.1417 
     83 H83        31.3155   22.3138    1.3648 H         1 UNK         0.1562 
     84 H84        29.9825   21.7292    4.7936 H         1 UNK         0.0748 
     85 H85        30.3426   20.9675    3.2692 H         1 UNK         0.0748 
     86 H86        28.5473   23.8249    4.9009 H         1 UNK         0.0940 
     87 H87        26.8748   23.5139    4.5991 H         1 UNK         0.0940 
     88 H88        28.5761   24.8629    2.4558 H         1 UNK         0.0703 
     89 H89        26.6576   24.8836    1.3671 H         1 UNK         0.3081 
     90 H90        23.5194   24.6394    1.8650 H         1 UNK         0.0719 
     91 H91        22.4310   26.8992    1.6964 H         1 UNK         0.0809 
     92 H92        23.8812   27.6517    2.3559 H         1 UNK         0.0809 
     93 H93        22.9098   26.5698    3.3443 H         1 UNK         0.0809 
     94 H94        25.5441   26.1070    0.3495 H         1 UNK         0.2990 
     95 H95        23.6157   25.8154   -2.7104 H         1 UNK         0.0690 
     96 H96        25.0816   27.8133   -3.0119 H         1 UNK         0.0788 
     97 H97        25.4016   27.8548   -1.2774 H         1 UNK         0.0788 
     98 H98        23.7785   28.1320   -1.8801 H         1 UNK         0.0788 
     99 H99        26.4479   25.7355   -2.2402 H         1 UNK         0.2993 
    100 H100       26.9016   22.2939   -2.3165 H         1 UNK         0.0949 
    101 H101       28.0578   22.5218   -4.5099 H         1 UNK         0.0767 
    102 H102       26.3184   22.4761   -4.7392 H         1 UNK         0.0767 
    103 H103       27.1712   24.0096   -4.8490 H         1 UNK         0.0767 
    104 H104       28.6539   24.4877   -2.9310 H         1 UNK         0.3013 
    105 H105       27.7388   27.2481    2.1137 H         1 UNK         0.3121 
    106 H106       28.4866   28.7982    4.5379 H         1 UNK         0.0774 
    107 H107       26.5110   30.2764    4.2130 H         1 UNK         0.0815 
    108 H108       25.9298   29.2589    2.9001 H         1 UNK         0.0815 
    109 H109       25.9828   28.6350    4.5479 H         1 UNK         0.0815 
    110 H110       30.2827   28.3306    2.7136 H         1 UNK         0.2987 
    111 H111       30.3206   30.1930    0.4765 H         1 UNK         0.0949 
    112 H112       32.4160   28.2669    1.6042 H         1 UNK         0.0806 
    113 H113       31.3097   27.9411    0.2808 H         1 UNK         0.0806 
    114 H114       32.5649   29.1472    0.0856 H         1 UNK         0.0806 
    115 H115       29.9043   31.6378    2.7591 H         1 UNK         0.3010 
    116 H116       30.5348   33.3988    4.0021 H         1 UNK         0.0829 
    117 H117       30.3722   34.3599    1.7316 H         1 UNK         0.0813 
    118 H118       31.6016   35.2124    2.6394 H         1 UNK         0.0813 
    119 H119       32.0674   34.0281    1.4140 H         1 UNK         0.0813 
    120 H120       33.5571   34.2573    2.8321 H         1 UNK         0.3038 
    121 H121       34.8719   34.0356    5.3108 H         1 UNK         0.0769 
    122 H122       36.8652   34.8098    4.0080 H         1 UNK         0.0811 
    123 H123       35.4355   35.7404    3.5985 H         1 UNK         0.0811 
    124 H124       36.0191   34.4870    2.5014 H         1 UNK         0.0811 
    125 H125       34.5476   31.5639    2.8431 H         1 UNK         0.3204 
    126 H126       36.9071   30.0488    3.6738 H         1 UNK         0.0748 
    127 H127       36.0094   28.3114    2.1765 H         1 UNK         0.0771 
    128 H128       34.4956   29.1812    2.0064 H         1 UNK         0.0771 
    129 H129       35.9834   29.8653    1.3558 H         1 UNK         0.0771 
    130 H130       33.6307   30.4379    4.8571 H         1 UNK         0.2980 
    131 H131       33.8947   28.0327    6.6041 H         1 UNK         0.0545 
    132 H132       33.3083   31.6160    6.6671 H         1 UNK         0.3459 
    133 H133       33.6363   31.7309    8.3851 H         1 UNK         0.3459 
    134 H134       31.3516   29.6010    5.9913 H         1 UNK         0.0616 
    135 H135       31.4728   28.1508    6.9572 H         1 UNK         0.0616 
    136 H136       33.5354   26.2823    5.0480 H         1 UNK         0.0634 
    137 H137       32.1607   25.7955    6.0196 H         1 UNK         0.0634 
@<TRIPOS>BOND
     1    1    2 1    
     2    1   72 1    
     3    1   73 1    
     4    1   74 1    
     5    2    3 2    
     6    2    4 am   BACKBONE|DICT|INTERRES
     7    4    5 1    
     8    4   75 1    
     9    5    6 1    
    10    5   35 1    
    11    5   76 1    
    12    6    7 1    
    13    6   77 1    
    14    6   78 1    
    15    7    8 1    
    16    8    9 1    
    17    8   79 1    
    18    8   80 1    
    19    9   10 ar   
    20    9   14 ar   
    21   10   11 ar   
    22   10   81 1    
    23   11   12 ar   
    24   11   71 1    
    25   12   13 ar   
    26   12   82 1    
    27   13   14 ar   
    28   13   15 1    
    29   14   83 1    
    30   15   16 1    
    31   15   84 1    
    32   15   85 1    
    33   16   17 1    
    34   17   18 1    
    35   17   86 1    
    36   17   87 1    
    37   18   19 1    
    38   18   37 1    
    39   18   88 1    
    40   19   20 am   BACKBONE|DICT|INTERRES
    41   19   89 1    
    42   20   21 2    
    43   20   22 1    
    44   22   23 1    
    45   22   24 1    
    46   22   90 1    
    47   23   91 1    
    48   23   92 1    
    49   23   93 1    
    50   24   25 am   BACKBONE|DICT|INTERRES
    51   24   94 1    
    52   25   26 2    
    53   25   27 1    
    54   27   28 1    
    55   27   29 1    
    56   27   95 1    
    57   28   96 1    
    58   28   97 1    
    59   28   98 1    
    60   29   30 am   BACKBONE|DICT|INTERRES
    61   29   99 1    
    62   30   31 2    
    63   30   32 1    
    64   32   33 1    
    65   32   34 1    
    66   32  100 1    
    67   33  101 1    
    68   33  102 1    
    69   33  103 1    
    70   34   35 am   BACKBONE|DICT|INTERRES
    71   34  104 1    
    72   35   36 2    
    73   37   38 2    
    74   37   39 am   BACKBONE|DICT|INTERRES
    75   39   40 1    
    76   39  105 1    
    77   40   41 1    
    78   40   42 1    
    79   40  106 1    
    80   41  107 1    
    81   41  108 1    
    82   41  109 1    
    83   42   43 2    
    84   42   44 am   BACKBONE|DICT|INTERRES
    85   44   45 1    
    86   44  110 1    
    87   45   46 1    
    88   45   47 1    
    89   45  111 1    
    90   46  112 1    
    91   46  113 1    
    92   46  114 1    
    93   47   48 2    
    94   47   49 am   BACKBONE|DICT|INTERRES
    95   49   50 1    
    96   49  115 1    
    97   50   51 1    
    98   50   52 1    
    99   50  116 1    
   100   51  117 1    
   101   51  118 1    
   102   51  119 1    
   103   52   53 2    
   104   52   54 am   BACKBONE|DICT|INTERRES
   105   54   55 1    
   106   54  120 1    
   107   55   56 1    
   108   55   57 1    
   109   55  121 1    
   110   56  122 1    
   111   56  123 1    
   112   56  124 1    
   113   57   58 2    
   114   57   59 am   BACKBONE|DICT|INTERRES
   115   59   60 1    
   116   59  125 1    
   117   60   61 1    
   118   60   62 1    
   119   60  126 1    
   120   61  127 1    
   121   61  128 1    
   122   61  129 1    
   123   62   63 2    
   124   62   64 am   BACKBONE|DICT|INTERRES
   125   64   65 1    
   126   64  130 1    
   127   65   66 1    
   128   65   69 1    
   129   65  131 1    
   130   66   67 am   BACKBONE|DICT|INTERRES
   131   66   68 2    
   132   67  132 1    
   133   67  133 1    
   134   69   70 1    
   135   69  134 1    
   136   69  135 1    
   137   70   71 1    
   138   71  136 1    
   139   71  137 1    
@<TRIPOS>SUBSTRUCTURE
     1 UNK         1 GROUP             0       ****    0 ROOT    
