@<TRIPOS>MOLECULE
3R136
137   139    1
SMALL
USER_CHARGES


@<TRIPOS>ATOM
      1 CA         30.3254   25.4547    1.0341 C.3       0 UNK        -0.1979 
      2 C          30.1733   24.4520   -0.0977 C.2       0 UNK         0.4864 
      3 O          30.5807   24.7434   -1.2240 O.2       0 UNK        -0.5359 
      4 N          29.5851   23.2827    0.1953 N.am      1 UNK        -0.4318 
      5 CA         29.3552   22.1422   -0.7012 C.3       1 UNK         0.0824 
      6 C6         30.6680   21.4728   -1.1992 C.3       12 UNK        -0.0944 
      7 S7         31.4131   20.3746    0.0535 S.3       12 UNK        -0.2672 
      8 C8         32.6690   21.4356    0.8566 C.3       12 UNK         0.0333 
      9 C9         32.1826   22.2532    2.0572 C.ar      12 UNK        -0.0807 
     10 C10        32.9698   23.3205    2.5017 C.ar      12 UNK        -0.0894 
     11 C11        32.5874   24.0856    3.6086 C.ar      12 UNK        -0.0804 
     12 C12        31.3933   23.7879    4.2713 C.ar      12 UNK        -0.0824 
     13 C13        30.5881   22.7337    3.8332 C.ar      12 UNK        -0.0762 
     14 C14        30.9977   21.9581    2.7450 C.ar      12 UNK        -0.0782 
     15 C15        29.2690   22.4283    4.5233 C.3       12 UNK         0.0230 
     16 S16        27.9253   23.4629    3.8563 S.3       12 UNK        -0.2608 
     17 C17        27.8828   24.8570    5.0373 C.3       12 UNK        -0.0989 
     18 CA         28.0986   26.2452    4.3769 C.3       5 UNK         0.0716 
     19 N          27.1093   26.5070    3.3229 N.am      5 UNK        -0.4135 
     20 C          27.2426   27.3999    2.3346 C.2       4 UNK         0.5031 
     21 O          28.2367   28.1138    2.1858 O.2       4 UNK        -0.5229 
     22 CA         26.0504   27.5664    1.3785 C.3       4 UNK         0.0329 
     23 CB         25.2465   28.8240    1.7476 C.3       4 UNK        -0.2001 
     24 N          26.5081   27.6744   -0.0085 N.am      4 UNK        -0.4303 
     25 C          27.0445   26.6572   -0.6936 C.2       3 UNK         0.5044 
     26 O          27.0811   25.5017   -0.2645 O.2       3 UNK        -0.5152 
     27 CA         27.6470   26.9955   -2.0696 C.3       3 UNK         0.0319 
     28 CB         28.8174   27.9870   -1.9412 C.3       3 UNK        -0.2001 
     29 N          28.1518   25.7815   -2.7081 N.am      3 UNK        -0.4354 
     30 C          27.4930   25.0442   -3.6111 C.2       2 UNK         0.4964 
     31 O          26.4204   25.3725   -4.1197 O.2       2 UNK        -0.5047 
     32 CA         28.1386   23.7045   -4.0103 C.3       2 UNK         0.0288 
     33 CB         29.0431   23.8836   -5.2405 C.3       2 UNK        -0.2113 
     34 N          28.9206   23.1249   -2.9157 N.am      2 UNK        -0.4145 
     35 C          28.3907   22.5131   -1.8474 C.2       1 UNK         0.5006 
     36 O          27.1930   22.2426   -1.7400 O.2       1 UNK        -0.5103 
     37 C          28.0806   27.3849    5.4233 C.2       5 UNK         0.5055 
     38 O          27.7201   27.1584    6.5803 O.2       5 UNK        -0.5220 
     39 N          28.4248   28.5995    4.9878 N.am      6 UNK        -0.4450 
     40 CA         28.3797   29.8333    5.7628 C.3       6 UNK         0.0367 
     41 CB         26.9475   30.4063    5.7149 C.3       6 UNK        -0.1929 
     42 C          29.4144   30.8238    5.2127 C.2       6 UNK         0.5070 
     43 O          30.1805   30.4870    4.3033 O.2       6 UNK        -0.5237 
     44 N          29.4006   32.0477    5.7596 N.am      7 UNK        -0.4739 
     45 CA         30.3018   33.1579    5.4266 C.3       7 UNK         0.0276 
     46 CB         29.9462   34.3758    6.2934 C.3       7 UNK        -0.1927 
     47 C          30.3268   33.5494    3.9377 C.2       7 UNK         0.5013 
     48 O          31.3524   34.0431    3.4712 O.2       7 UNK        -0.5193 
     49 N          29.2416   33.2580    3.2052 N.am      8 UNK        -0.4253 
     50 CA         29.1373   33.3808    1.7467 C.3       8 UNK         0.0242 
     51 CB         27.7154   32.9903    1.3105 C.3       8 UNK        -0.2000 
     52 C          30.1788   32.5479    0.9716 C.2       8 UNK         0.4948 
     53 O          30.5894   32.9635   -0.1124 O.2       8 UNK        -0.5275 
     54 N          30.6007   31.4134    1.5467 N.am      9 UNK        -0.4246 
     55 CA         31.6692   30.5502    1.0379 C.3       9 UNK         0.0261 
     56 CB         31.1473   29.1040    1.0210 C.3       9 UNK        -0.1959 
     57 C          32.9465   30.6520    1.8947 C.2       9 UNK         0.5033 
     58 O          33.8827   29.8875    1.6594 O.2       9 UNK        -0.5390 
     59 N          32.9573   31.5618    2.8836 N.am      10 UNK        -0.4215 
     60 CA         33.9505   31.7169    3.9553 C.3       10 UNK         0.0240 
     61 CB         35.3198   32.1490    3.3882 C.3       10 UNK        -0.1982 
     62 C          34.0451   30.4887    4.8880 C.2       10 UNK         0.4970 
     63 O          35.0926   30.2703    5.4997 O.2       10 UNK        -0.4916 
     64 N          32.9565   29.7166    4.9871 N.am      11 UNK        -0.4279 
     65 CA         32.8439   28.5091    5.8139 C.3       11 UNK         0.1003 
     66 C          32.2836   28.8285    7.2256 C.2       11 UNK         0.5709 
     67 N          32.4742   27.9285    8.1807 N.am      11 UNK        -0.7358 
     68 O          31.6669   29.8646    7.4670 O.2       11 UNK        -0.4999 
     69 C69        31.9980   27.4260    5.0949 C.3       12 UNK        -0.0954 
     70 S70        32.8122   26.8423    3.5708 S.3       12 UNK        -0.2268 
     71 C71        33.4717   25.2279    4.0861 C.3       12 UNK         0.0203 
     72 H72        29.7908   26.3733    0.8002 H         1 UNK         0.0888 
     73 H73        29.9381   25.0673    1.9752 H         1 UNK         0.0888 
     74 H74        31.3773   25.6989    1.1753 H         1 UNK         0.0888 
     75 H75        29.2435   23.1490    1.1368 H         1 UNK         0.3017 
     76 H76        28.8163   21.4042   -0.1043 H         1 UNK         0.0873 
     77 H77        30.4677   20.8394   -2.0658 H         1 UNK         0.0745 
     78 H78        31.3991   22.2087   -1.5361 H         1 UNK         0.0745 
     79 H79        33.1065   22.0986    0.1088 H         1 UNK         0.0705 
     80 H80        33.4781   20.7904    1.2010 H         1 UNK         0.0705 
     81 H81        33.8917   23.5533    1.9859 H         1 UNK         0.1334 
     82 H82        31.0856   24.3823    5.1196 H         1 UNK         0.1417 
     83 H83        30.3756   21.1323    2.4310 H         1 UNK         0.1562 
     84 H84        29.3617   22.5530    5.6029 H         1 UNK         0.0748 
     85 H85        29.0040   21.3809    4.3704 H         1 UNK         0.0748 
     86 H86        28.6314   24.6984    5.8152 H         1 UNK         0.0940 
     87 H87        26.9176   24.8230    5.5467 H         1 UNK         0.0940 
     88 H88        29.0927   26.2455    3.9244 H         1 UNK         0.0703 
     89 H89        26.2575   25.9685    3.3808 H         1 UNK         0.3081 
     90 H90        25.3963   26.6956    1.4616 H         1 UNK         0.0719 
     91 H91        25.8541   29.7274    1.6763 H         1 UNK         0.0809 
     92 H92        24.3812   28.9484    1.0962 H         1 UNK         0.0809 
     93 H93        24.8746   28.7634    2.7714 H         1 UNK         0.0809 
     94 H94        26.5374   28.6021   -0.4046 H         1 UNK         0.2990 
     95 H95        26.8645   27.4500   -2.6807 H         1 UNK         0.0690 
     96 H96        29.2199   28.2463   -2.9206 H         1 UNK         0.0788 
     97 H97        29.6333   27.5690   -1.3511 H         1 UNK         0.0788 
     98 H98        28.5096   28.9191   -1.4662 H         1 UNK         0.0788 
     99 H99        28.9970   25.3946   -2.2995 H         1 UNK         0.2993 
    100 H100       27.3344   23.0130   -4.2722 H         1 UNK         0.0949 
    101 H101       29.4606   22.9309   -5.5672 H         1 UNK         0.0767 
    102 H102       28.4814   24.2957   -6.0800 H         1 UNK         0.0767 
    103 H103       29.8724   24.5625   -5.0374 H         1 UNK         0.0767 
    104 H104       29.9005   23.3742   -2.8697 H         1 UNK         0.3013 
    105 H105       28.7166   28.7050    4.0178 H         1 UNK         0.3121 
    106 H106       28.6561   29.6193    6.7975 H         1 UNK         0.0774 
    107 H107       26.8449   31.2953    6.3375 H         1 UNK         0.0815 
    108 H108       26.6587   30.6788    4.6989 H         1 UNK         0.0815 
    109 H109       26.2195   29.6825    6.0817 H         1 UNK         0.0815 
    110 H110       28.7396   32.2260    6.5021 H         1 UNK         0.2987 
    111 H111       31.3116   32.8361    5.6891 H         1 UNK         0.0949 
    112 H112       28.9286   34.7214    6.1070 H         1 UNK         0.0806 
    113 H113       30.0358   34.1478    7.3557 H         1 UNK         0.0806 
    114 H114       30.6169   35.2116    6.0875 H         1 UNK         0.0806 
    115 H115       28.4507   32.8525    3.6837 H         1 UNK         0.3010 
    116 H116       29.3027   34.4299    1.4926 H         1 UNK         0.0829 
    117 H117       26.9654   33.6267    1.7806 H         1 UNK         0.0813 
    118 H118       27.5958   33.0956    0.2312 H         1 UNK         0.0813 
    119 H119       27.4857   31.9541    1.5636 H         1 UNK         0.0813 
    120 H120       30.2153   31.1429    2.4482 H         1 UNK         0.3038 
    121 H121       31.9378   30.8315    0.0179 H         1 UNK         0.0769 
    122 H122       31.8733   28.4234    0.5749 H         1 UNK         0.0811 
    123 H123       30.2266   29.0249    0.4453 H         1 UNK         0.0811 
    124 H124       30.9363   28.7426    2.0284 H         1 UNK         0.0811 
    125 H125       32.1700   32.1974    2.9409 H         1 UNK         0.3204 
    126 H126       33.5880   32.5340    4.5801 H         1 UNK         0.0748 
    127 H127       36.0077   32.4208    4.1898 H         1 UNK         0.0771 
    128 H128       35.7914   31.3510    2.8140 H         1 UNK         0.0771 
    129 H129       35.2229   33.0187    2.7384 H         1 UNK         0.0771 
    130 H130       32.1026   29.9994    4.5184 H         1 UNK         0.2980 
    131 H131       33.8438   28.0975    5.9658 H         1 UNK         0.0545 
    132 H132       32.9801   27.0750    8.0041 H         1 UNK         0.3459 
    133 H133       32.1136   28.1143    9.1034 H         1 UNK         0.3459 
    134 H134       31.7999   26.5765    5.7495 H         1 UNK         0.0616 
    135 H135       31.0252   27.8292    4.8182 H         1 UNK         0.0616 
    136 H136       34.4762   25.1234    3.6734 H         1 UNK         0.0634 
    137 H137       33.5894   25.1868    5.1697 H         1 UNK         0.0634 
@<TRIPOS>BOND
     1    1    2 1    
     2    1   72 1    
     3    1   73 1    
     4    1   74 1    
     5    2    3 2    
     6    2    4 am   BACKBONE|DICT|INTERRES
     7    4    5 1    
     8    4   75 1    
     9    5    6 1    
    10    5   35 1    
    11    5   76 1    
    12    6    7 1    
    13    6   77 1    
    14    6   78 1    
    15    7    8 1    
    16    8    9 1    
    17    8   79 1    
    18    8   80 1    
    19    9   10 ar   
    20    9   14 ar   
    21   10   11 ar   
    22   10   81 1    
    23   11   12 ar   
    24   11   71 1    
    25   12   13 ar   
    26   12   82 1    
    27   13   14 ar   
    28   13   15 1    
    29   14   83 1    
    30   15   16 1    
    31   15   84 1    
    32   15   85 1    
    33   16   17 1    
    34   17   18 1    
    35   17   86 1    
    36   17   87 1    
    37   18   19 1    
    38   18   37 1    
    39   18   88 1    
    40   19   20 am   BACKBONE|DICT|INTERRES
    41   19   89 1    
    42   20   21 2    
    43   20   22 1    
    44   22   23 1    
    45   22   24 1    
    46   22   90 1    
    47   23   91 1    
    48   23   92 1    
    49   23   93 1    
    50   24   25 am   BACKBONE|DICT|INTERRES
    51   24   94 1    
    52   25   26 2    
    53   25   27 1    
    54   27   28 1    
    55   27   29 1    
    56   27   95 1    
    57   28   96 1    
    58   28   97 1    
    59   28   98 1    
    60   29   30 am   BACKBONE|DICT|INTERRES
    61   29   99 1    
    62   30   31 2    
    63   30   32 1    
    64   32   33 1    
    65   32   34 1    
    66   32  100 1    
    67   33  101 1    
    68   33  102 1    
    69   33  103 1    
    70   34   35 am   BACKBONE|DICT|INTERRES
    71   34  104 1    
    72   35   36 2    
    73   37   38 2    
    74   37   39 am   BACKBONE|DICT|INTERRES
    75   39   40 1    
    76   39  105 1    
    77   40   41 1    
    78   40   42 1    
    79   40  106 1    
    80   41  107 1    
    81   41  108 1    
    82   41  109 1    
    83   42   43 2    
    84   42   44 am   BACKBONE|DICT|INTERRES
    85   44   45 1    
    86   44  110 1    
    87   45   46 1    
    88   45   47 1    
    89   45  111 1    
    90   46  112 1    
    91   46  113 1    
    92   46  114 1    
    93   47   48 2    
    94   47   49 am   BACKBONE|DICT|INTERRES
    95   49   50 1    
    96   49  115 1    
    97   50   51 1    
    98   50   52 1    
    99   50  116 1    
   100   51  117 1    
   101   51  118 1    
   102   51  119 1    
   103   52   53 2    
   104   52   54 am   BACKBONE|DICT|INTERRES
   105   54   55 1    
   106   54  120 1    
   107   55   56 1    
   108   55   57 1    
   109   55  121 1    
   110   56  122 1    
   111   56  123 1    
   112   56  124 1    
   113   57   58 2    
   114   57   59 am   BACKBONE|DICT|INTERRES
   115   59   60 1    
   116   59  125 1    
   117   60   61 1    
   118   60   62 1    
   119   60  126 1    
   120   61  127 1    
   121   61  128 1    
   122   61  129 1    
   123   62   63 2    
   124   62   64 am   BACKBONE|DICT|INTERRES
   125   64   65 1    
   126   64  130 1    
   127   65   66 1    
   128   65   69 1    
   129   65  131 1    
   130   66   67 am   BACKBONE|DICT|INTERRES
   131   66   68 2    
   132   67  132 1    
   133   67  133 1    
   134   69   70 1    
   135   69  134 1    
   136   69  135 1    
   137   70   71 1    
   138   71  136 1    
   139   71  137 1    
@<TRIPOS>SUBSTRUCTURE
     1 UNK         1 GROUP             0       ****    0 ROOT    
