@<TRIPOS>MOLECULE
3R136
137   139    1
SMALL
USER_CHARGES


@<TRIPOS>ATOM
      1 CA         30.7653   26.6099   -4.3431 C.3       0 UNK        -0.1979 
      2 C          30.0430   25.9089   -3.2021 C.2       0 UNK         0.4864 
      3 O          30.1597   24.6903   -3.0678 O.2       0 UNK        -0.5359 
      4 N          29.2977   26.6742   -2.3906 N.am      1 UNK        -0.4318 
      5 CA         28.5474   26.2274   -1.2060 C.3       1 UNK         0.0824 
      6 C6         29.4549   25.7086   -0.0581 C.3       12 UNK        -0.0944 
      7 S7         30.6211   26.9668    0.5643 S.3       12 UNK        -0.2672 
      8 C8         32.1008   25.9469    0.8544 C.3       12 UNK         0.0333 
      9 C9         32.1202   25.3466    2.2551 C.ar      12 UNK        -0.0807 
     10 C10        33.0717   25.7805    3.1824 C.ar      12 UNK        -0.0894 
     11 C11        33.1551   25.1962    4.4494 C.ar      12 UNK        -0.0804 
     12 C12        32.2411   24.1963    4.8008 C.ar      12 UNK        -0.0824 
     13 C13        31.2696   23.7619    3.8920 C.ar      12 UNK        -0.0762 
     14 C14        31.2316   24.3261    2.6119 C.ar      12 UNK        -0.0782 
     15 C15        30.3079   22.6429    4.2905 C.3       12 UNK         0.0230 
     16 S16        28.5500   22.9968    3.9345 S.3       12 UNK        -0.2608 
     17 C17        28.2909   24.5873    4.7882 C.3       12 UNK        -0.0989 
     18 CA         28.0314   25.7108    3.7564 C.3       5 UNK         0.0716 
     19 N          26.6847   25.6337    3.1755 N.am      5 UNK        -0.4135 
     20 C          26.2548   26.3953    2.1614 C.2       4 UNK         0.5031 
     21 O          26.9789   27.1690    1.5346 O.2       4 UNK        -0.5229 
     22 CA         24.7793   26.2588    1.7731 C.3       4 UNK         0.0329 
     23 CB         24.2435   27.5299    1.0802 C.3       4 UNK        -0.2001 
     24 N          24.6110   25.1031    0.8949 N.am      4 UNK        -0.4303 
     25 C          23.4504   24.4610    0.6999 C.2       3 UNK         0.5044 
     26 O          22.4168   24.7317    1.3151 O.2       3 UNK        -0.5152 
     27 CA         23.4329   23.3299   -0.3528 C.3       3 UNK         0.0319 
     28 CB         22.0226   23.0640   -0.9224 C.3       3 UNK        -0.2001 
     29 N          24.4035   23.5208   -1.4382 N.am      3 UNK        -0.4354 
     30 C          24.4725   24.5413   -2.3072 C.2       2 UNK         0.4964 
     31 O          23.6604   25.4663   -2.3661 O.2       2 UNK        -0.5047 
     32 CA         25.7022   24.5473   -3.2353 C.3       2 UNK         0.0288 
     33 CB         25.3407   25.0166   -4.6561 C.3       2 UNK        -0.2113 
     34 N          26.7846   25.3898   -2.7157 N.am      2 UNK        -0.4145 
     35 C          27.4129   25.2299   -1.5397 C.2       1 UNK         0.5006 
     36 O          27.1218   24.3428   -0.7329 O.2       1 UNK        -0.5103 
     37 C          28.3199   27.1013    4.3520 C.2       5 UNK         0.5055 
     38 O          27.4090   27.7522    4.8690 O.2       5 UNK        -0.5220 
     39 N          29.5935   27.5080    4.2549 N.am      6 UNK        -0.4450 
     40 CA         30.1613   28.8016    4.6520 C.3       6 UNK         0.0367 
     41 CB         29.8366   29.1584    6.1186 C.3       6 UNK        -0.1929 
     42 C          29.8442   29.9649    3.6950 C.2       6 UNK         0.5070 
     43 O          30.3077   31.0753    3.9537 O.2       6 UNK        -0.5237 
     44 N          29.1418   29.7159    2.5779 N.am      7 UNK        -0.4739 
     45 CA         28.8494   30.7219    1.5447 C.3       7 UNK         0.0276 
     46 CB         27.8843   30.1313    0.5069 C.3       7 UNK        -0.1927 
     47 C          30.1064   31.2825    0.8512 C.2       7 UNK         0.5013 
     48 O          30.0943   32.4316    0.4096 O.2       7 UNK        -0.5193 
     49 N          31.1757   30.4759    0.8045 N.am      8 UNK        -0.4253 
     50 CA         32.5065   30.8597    0.3275 C.3       8 UNK         0.0242 
     51 CB         33.2800   29.5829   -0.0446 C.3       8 UNK        -0.2000 
     52 C          33.3148   31.6995    1.3397 C.2       8 UNK         0.4948 
     53 O          34.4108   32.1398    0.9933 O.2       8 UNK        -0.5275 
     54 N          32.8019   31.8730    2.5703 N.am      9 UNK        -0.4246 
     55 CA         33.3982   32.5907    3.7087 C.3       9 UNK         0.0261 
     56 CB         33.6378   34.0783    3.3727 C.3       9 UNK        -0.1959 
     57 C          34.6472   31.9207    4.3203 C.2       9 UNK         0.5033 
     58 O          35.2815   32.5164    5.1928 O.2       9 UNK        -0.5390 
     59 N          34.9705   30.6927    3.8894 N.am      10 UNK        -0.4215 
     60 CA         36.0589   29.8731    4.4329 C.3       10 UNK         0.0240 
     61 CB         36.4156   28.7726    3.4200 C.3       10 UNK        -0.1982 
     62 C          35.7193   29.2591    5.8042 C.2       10 UNK         0.4970 
     63 O          36.6303   29.0045    6.5924 O.2       10 UNK        -0.4916 
     64 N          34.4241   29.0375    6.0520 N.am      11 UNK        -0.4279 
     65 CA         33.8494   28.5905    7.3264 C.3       11 UNK         0.1003 
     66 C          33.1039   29.7628    8.0202 C.2       11 UNK         0.5709 
     67 N          32.8038   29.6278    9.3046 N.am      11 UNK        -0.7358 
     68 O          32.7818   30.7827    7.4125 O.2       11 UNK        -0.4999 
     69 C69        32.9202   27.3612    7.1116 C.3       12 UNK        -0.0954 
     70 S70        33.8387   25.7906    7.1279 S.3       12 UNK        -0.2268 
     71 C71        34.3037   25.5830    5.3781 C.3       12 UNK         0.0203 
     72 H72        30.4376   26.2047   -5.3001 H         1 UNK         0.0888 
     73 H73        30.5786   27.6837   -4.3473 H         1 UNK         0.0888 
     74 H74        31.8403   26.4542   -4.2567 H         1 UNK         0.0888 
     75 H75        29.2584   27.6685   -2.5664 H         1 UNK         0.3017 
     76 H76        28.0314   27.1131   -0.8374 H         1 UNK         0.0873 
     77 H77        28.8502   25.3858    0.7859 H         1 UNK         0.0745 
     78 H78        29.9954   24.8204   -0.3864 H         1 UNK         0.0745 
     79 H79        32.9798   26.5733    0.7002 H         1 UNK         0.0705 
     80 H80        32.1753   25.1543    0.1089 H         1 UNK         0.0705 
     81 H81        33.7825   26.5434    2.8980 H         1 UNK         0.1334 
     82 H82        32.3084   23.7327    5.7755 H         1 UNK         0.1417 
     83 H83        30.5083   23.9657    1.8941 H         1 UNK         0.1562 
     84 H84        30.4001   22.4187    5.3544 H         1 UNK         0.0748 
     85 H85        30.5941   21.7329    3.7617 H         1 UNK         0.0748 
     86 H86        29.1660   24.8026    5.4052 H         1 UNK         0.0940 
     87 H87        27.4551   24.4935    5.4840 H         1 UNK         0.0940 
     88 H88        28.7366   25.5836    2.9374 H         1 UNK         0.0703 
     89 H89        26.0335   25.0142    3.6340 H         1 UNK         0.3081 
     90 H90        24.2105   26.1035    2.6925 H         1 UNK         0.0719 
     91 H91        24.7253   27.6951    0.1155 H         1 UNK         0.0809 
     92 H92        23.1688   27.4690    0.9091 H         1 UNK         0.0809 
     93 H93        24.4243   28.4144    1.6925 H         1 UNK         0.0809 
     94 H94        25.4341   24.8067    0.3778 H         1 UNK         0.2990 
     95 H95        23.7471   22.4291    0.1764 H         1 UNK         0.0690 
     96 H96        22.0349   22.2537   -1.6513 H         1 UNK         0.0788 
     97 H97        21.6099   23.9479   -1.4097 H         1 UNK         0.0788 
     98 H98        21.3282   22.7752   -0.1324 H         1 UNK         0.0788 
     99 H99        25.1690   22.8593   -1.4439 H         1 UNK         0.2993 
    100 H100       26.0825   23.5262   -3.3102 H         1 UNK         0.0949 
    101 H101       25.0112   26.0565   -4.6687 H         1 UNK         0.0767 
    102 H102       26.1910   24.9259   -5.3325 H         1 UNK         0.0767 
    103 H103       24.5320   24.4136   -5.0713 H         1 UNK         0.0767 
    104 H104       27.0790   26.1534   -3.3064 H         1 UNK         0.3013 
    105 H105       30.2482   26.8819    3.8034 H         1 UNK         0.3121 
    106 H106       31.2412   28.6713    4.5822 H         1 UNK         0.0774 
    107 H107       28.7872   29.4196    6.2536 H         1 UNK         0.0815 
    108 H108       30.0673   28.3360    6.7948 H         1 UNK         0.0815 
    109 H109       30.4157   30.0220    6.4448 H         1 UNK         0.0815 
    110 H110       28.7809   28.7837    2.4194 H         1 UNK         0.2987 
    111 H111       28.3511   31.5617    2.0340 H         1 UNK         0.0949 
    112 H112       27.6384   30.8640   -0.2629 H         1 UNK         0.0806 
    113 H113       28.3178   29.2652    0.0080 H         1 UNK         0.0806 
    114 H114       26.9466   29.8206    0.9678 H         1 UNK         0.0806 
    115 H115       31.0692   29.5334    1.1539 H         1 UNK         0.3010 
    116 H116       32.3900   31.4648   -0.5742 H         1 UNK         0.0829 
    117 H117       32.7417   28.9939   -0.7877 H         1 UNK         0.0813 
    118 H118       34.2543   29.8243   -0.4718 H         1 UNK         0.0813 
    119 H119       33.4545   28.9498    0.8256 H         1 UNK         0.0813 
    120 H120       31.8818   31.4889    2.7644 H         1 UNK         0.3038 
    121 H121       32.6427   32.5579    4.4955 H         1 UNK         0.0769 
    122 H122       33.9151   34.6409    4.2649 H         1 UNK         0.0811 
    123 H123       32.7394   34.5426    2.9660 H         1 UNK         0.0811 
    124 H124       34.4419   34.2081    2.6480 H         1 UNK         0.0811 
    125 H125       34.4264   30.2987    3.1372 H         1 UNK         0.3204 
    126 H126       36.9365   30.5095    4.5666 H         1 UNK         0.0748 
    127 H127       37.2288   28.1476    3.7923 H         1 UNK         0.0771 
    128 H128       35.5688   28.1179    3.2154 H         1 UNK         0.0771 
    129 H129       36.7455   29.1993    2.4724 H         1 UNK         0.0771 
    130 H130       33.7539   29.3587    5.3716 H         1 UNK         0.2980 
    131 H131       34.6536   28.3083    8.0088 H         1 UNK         0.0545 
    132 H132       32.3161   30.3753    9.7729 H         1 UNK         0.3459 
    133 H133       33.0583   28.7975    9.8166 H         1 UNK         0.3459 
    134 H134       32.3527   27.4405    6.1851 H         1 UNK         0.0616 
    135 H135       32.1780   27.2802    7.9078 H         1 UNK         0.0616 
    136 H136       35.0577   24.7973    5.3220 H         1 UNK         0.0634 
    137 H137       34.7935   26.4926    5.0324 H         1 UNK         0.0634 
@<TRIPOS>BOND
     1    1    2 1    
     2    1   72 1    
     3    1   73 1    
     4    1   74 1    
     5    2    3 2    
     6    2    4 am   BACKBONE|DICT|INTERRES
     7    4    5 1    
     8    4   75 1    
     9    5    6 1    
    10    5   35 1    
    11    5   76 1    
    12    6    7 1    
    13    6   77 1    
    14    6   78 1    
    15    7    8 1    
    16    8    9 1    
    17    8   79 1    
    18    8   80 1    
    19    9   10 ar   
    20    9   14 ar   
    21   10   11 ar   
    22   10   81 1    
    23   11   12 ar   
    24   11   71 1    
    25   12   13 ar   
    26   12   82 1    
    27   13   14 ar   
    28   13   15 1    
    29   14   83 1    
    30   15   16 1    
    31   15   84 1    
    32   15   85 1    
    33   16   17 1    
    34   17   18 1    
    35   17   86 1    
    36   17   87 1    
    37   18   19 1    
    38   18   37 1    
    39   18   88 1    
    40   19   20 am   BACKBONE|DICT|INTERRES
    41   19   89 1    
    42   20   21 2    
    43   20   22 1    
    44   22   23 1    
    45   22   24 1    
    46   22   90 1    
    47   23   91 1    
    48   23   92 1    
    49   23   93 1    
    50   24   25 am   BACKBONE|DICT|INTERRES
    51   24   94 1    
    52   25   26 2    
    53   25   27 1    
    54   27   28 1    
    55   27   29 1    
    56   27   95 1    
    57   28   96 1    
    58   28   97 1    
    59   28   98 1    
    60   29   30 am   BACKBONE|DICT|INTERRES
    61   29   99 1    
    62   30   31 2    
    63   30   32 1    
    64   32   33 1    
    65   32   34 1    
    66   32  100 1    
    67   33  101 1    
    68   33  102 1    
    69   33  103 1    
    70   34   35 am   BACKBONE|DICT|INTERRES
    71   34  104 1    
    72   35   36 2    
    73   37   38 2    
    74   37   39 am   BACKBONE|DICT|INTERRES
    75   39   40 1    
    76   39  105 1    
    77   40   41 1    
    78   40   42 1    
    79   40  106 1    
    80   41  107 1    
    81   41  108 1    
    82   41  109 1    
    83   42   43 2    
    84   42   44 am   BACKBONE|DICT|INTERRES
    85   44   45 1    
    86   44  110 1    
    87   45   46 1    
    88   45   47 1    
    89   45  111 1    
    90   46  112 1    
    91   46  113 1    
    92   46  114 1    
    93   47   48 2    
    94   47   49 am   BACKBONE|DICT|INTERRES
    95   49   50 1    
    96   49  115 1    
    97   50   51 1    
    98   50   52 1    
    99   50  116 1    
   100   51  117 1    
   101   51  118 1    
   102   51  119 1    
   103   52   53 2    
   104   52   54 am   BACKBONE|DICT|INTERRES
   105   54   55 1    
   106   54  120 1    
   107   55   56 1    
   108   55   57 1    
   109   55  121 1    
   110   56  122 1    
   111   56  123 1    
   112   56  124 1    
   113   57   58 2    
   114   57   59 am   BACKBONE|DICT|INTERRES
   115   59   60 1    
   116   59  125 1    
   117   60   61 1    
   118   60   62 1    
   119   60  126 1    
   120   61  127 1    
   121   61  128 1    
   122   61  129 1    
   123   62   63 2    
   124   62   64 am   BACKBONE|DICT|INTERRES
   125   64   65 1    
   126   64  130 1    
   127   65   66 1    
   128   65   69 1    
   129   65  131 1    
   130   66   67 am   BACKBONE|DICT|INTERRES
   131   66   68 2    
   132   67  132 1    
   133   67  133 1    
   134   69   70 1    
   135   69  134 1    
   136   69  135 1    
   137   70   71 1    
   138   71  136 1    
   139   71  137 1    
@<TRIPOS>SUBSTRUCTURE
     1 UNK         1 GROUP             0       ****    0 ROOT    
