@<TRIPOS>MOLECULE
3R136
137   139    1
SMALL
USER_CHARGES


@<TRIPOS>ATOM
      1 CA         31.7691   23.9847   -3.9106 C.3       0 UNK        -0.1979 
      2 C          31.5617   22.5478   -3.4361 C.2       0 UNK         0.4864 
      3 O          31.8237   21.6195   -4.2001 O.2       0 UNK        -0.5359 
      4 N          31.1149   22.3058   -2.1952 N.am      1 UNK        -0.4318 
      5 CA         30.6908   23.2899   -1.1901 C.3       1 UNK         0.0824 
      6 C6         30.5905   22.6540    0.2176 C.3       12 UNK        -0.0944 
      7 S7         32.2252   22.0984    0.8055 S.3       12 UNK        -0.2672 
      8 C8         31.9165   21.8367    2.5839 C.3       12 UNK         0.0333 
      9 C9         31.5330   23.1046    3.3432 C.ar      12 UNK        -0.0807 
     10 C10        32.2214   24.3081    3.1435 C.ar      12 UNK        -0.0894 
     11 C11        31.8689   25.4559    3.8592 C.ar      12 UNK        -0.0804 
     12 C12        30.8324   25.3912    4.7927 C.ar      12 UNK        -0.0824 
     13 C13        30.1458   24.1954    5.0147 C.ar      12 UNK        -0.0762 
     14 C14        30.4960   23.0580    4.2816 C.ar      12 UNK        -0.0782 
     15 C15        29.0526   24.1209    6.0717 C.3       12 UNK         0.0230 
     16 S16        27.3933   24.3991    5.3755 S.3       12 UNK        -0.2608 
     17 C17        27.3912   26.2053    5.1038 C.3       12 UNK        -0.0989 
     18 CA         27.0860   26.5761    3.6246 C.3       5 UNK         0.0716 
     19 N          25.7697   26.1070    3.1721 N.am      5 UNK        -0.4135 
     20 C          24.5722   26.4780    3.6561 C.2       4 UNK         0.5031 
     21 O          24.4289   27.2565    4.6004 O.2       4 UNK        -0.5229 
     22 CA         23.3188   25.8991    2.9604 C.3       4 UNK         0.0329 
     23 CB         22.1196   26.8701    3.0164 C.3       4 UNK        -0.2001 
     24 N          23.5477   25.4521    1.5785 N.am      4 UNK        -0.4303 
     25 C          24.0172   26.1917    0.5642 C.2       3 UNK         0.5044 
     26 O          24.3103   27.3867    0.6520 O.2       3 UNK        -0.5152 
     27 CA         24.2509   25.4506   -0.7614 C.3       3 UNK         0.0319 
     28 CB         23.1679   25.8221   -1.7865 C.3       3 UNK        -0.2001 
     29 N          25.5717   25.7523   -1.3171 N.am      3 UNK        -0.4354 
     30 C          26.7393   25.5129   -0.7040 C.2       2 UNK         0.4964 
     31 O          26.8461   24.9722    0.4012 O.2       2 UNK        -0.5047 
     32 CA         27.9923   26.0231   -1.4325 C.3       2 UNK         0.0288 
     33 CB         28.2828   27.4724   -1.0172 C.3       2 UNK        -0.2113 
     34 N          29.1747   25.2077   -1.1523 N.am      2 UNK        -0.4145 
     35 C          29.3562   23.9537   -1.5859 C.2       1 UNK         0.5006 
     36 O          28.5378   23.3381   -2.2751 O.2       1 UNK        -0.5103 
     37 C          27.3258   28.0776    3.3286 C.2       5 UNK         0.5055 
     38 O          28.2227   28.6741    3.9283 O.2       5 UNK        -0.5220 
     39 N          26.5624   28.6748    2.3979 N.am      6 UNK        -0.4450 
     40 CA         26.6316   30.0947    2.0303 C.3       6 UNK         0.0367 
     41 CB         25.2664   30.5276    1.4645 C.3       6 UNK        -0.1929 
     42 C          27.7965   30.4014    1.0657 C.2       6 UNK         0.5070 
     43 O          27.5883   31.0076    0.0130 O.2       6 UNK        -0.5237 
     44 N          29.0022   29.9525    1.4273 N.am      7 UNK        -0.4739 
     45 CA         30.2341   30.1401    0.6644 C.3       7 UNK         0.0276 
     46 CB         31.2023   28.9965    1.0096 C.3       7 UNK        -0.1927 
     47 C          30.8910   31.4868    0.9955 C.2       7 UNK         0.5013 
     48 O          30.7360   31.9945    2.1091 O.2       7 UNK        -0.5193 
     49 N          31.6905   31.9973    0.0518 N.am      8 UNK        -0.4253 
     50 CA         32.5953   33.1314    0.2513 C.3       8 UNK         0.0242 
     51 CB         32.7594   33.8846   -1.0826 C.3       8 UNK        -0.2000 
     52 C          33.9342   32.6229    0.8189 C.2       8 UNK         0.4948 
     53 O          34.9649   32.7066    0.1480 O.2       8 UNK        -0.5275 
     54 N          33.8814   32.0550    2.0275 N.am      9 UNK        -0.4246 
     55 CA         34.9944   31.4258    2.7308 C.3       9 UNK         0.0261 
     56 CB         35.1307   29.9624    2.2689 C.3       9 UNK        -0.1959 
     57 C          34.7290   31.5015    4.2375 C.2       9 UNK         0.5033 
     58 O          33.5824   31.7071    4.6452 O.2       9 UNK        -0.5390 
     59 N          35.7834   31.2980    5.0395 N.am      10 UNK        -0.4215 
     60 CA         35.7556   31.3479    6.5086 C.3       10 UNK         0.0240 
     61 CB         37.1832   31.1646    7.0493 C.3       10 UNK        -0.1982 
     62 C          34.7975   30.3378    7.1693 C.2       10 UNK         0.4970 
     63 O          34.3046   30.6071    8.2654 O.2       10 UNK        -0.4916 
     64 N          34.5399   29.2134    6.4904 N.am      11 UNK        -0.4279 
     65 CA         33.5155   28.2249    6.8531 C.3       11 UNK         0.1003 
     66 C          32.0449   28.6924    6.6394 C.2       11 UNK         0.5709 
     67 N          31.7771   29.7916    5.9435 N.am      11 UNK        -0.7358 
     68 O          31.1246   28.0464    7.1334 O.2       11 UNK        -0.4999 
     69 C69        33.7949   26.8373    6.2093 C.3       12 UNK        -0.0954 
     70 S70        34.2096   26.8730    4.4272 S.3       12 UNK        -0.2268 
     71 C71        32.5862   26.7740    3.6091 C.3       12 UNK         0.0203 
     72 H72        32.3042   23.9966   -4.8601 H         1 UNK         0.0888 
     73 H73        30.8134   24.4843   -4.0651 H         1 UNK         0.0888 
     74 H74        32.3599   24.5594   -3.1985 H         1 UNK         0.0888 
     75 H75        30.9915   21.3437   -1.9161 H         1 UNK         0.3017 
     76 H76        31.4496   24.0734   -1.1436 H         1 UNK         0.0873 
     77 H77        30.1922   23.3742    0.9353 H         1 UNK         0.0745 
     78 H78        29.9029   21.8058    0.2187 H         1 UNK         0.0745 
     79 H79        32.8188   21.4232    3.0360 H         1 UNK         0.0705 
     80 H80        31.1425   21.0746    2.6883 H         1 UNK         0.0705 
     81 H81        33.0309   24.3549    2.4280 H         1 UNK         0.1334 
     82 H82        30.5686   26.2745    5.3552 H         1 UNK         0.1417 
     83 H83        29.9658   22.1310    4.4544 H         1 UNK         0.1562 
     84 H84        29.2416   24.8395    6.8711 H         1 UNK         0.0748 
     85 H85        29.0701   23.1377    6.5445 H         1 UNK         0.0748 
     86 H86        28.3518   26.6127    5.4161 H         1 UNK         0.0940 
     87 H87        26.6617   26.6557    5.7780 H         1 UNK         0.0940 
     88 H88        27.8130   26.0517    3.0019 H         1 UNK         0.0703 
     89 H89        25.7940   25.4784    2.3786 H         1 UNK         0.3081 
     90 H90        23.0490   25.0074    3.5281 H         1 UNK         0.0719 
     91 H91        22.3442   27.8178    2.5255 H         1 UNK         0.0809 
     92 H92        21.2397   26.4433    2.5351 H         1 UNK         0.0809 
     93 H93        21.8435   27.0961    4.0472 H         1 UNK         0.0809 
     94 H94        23.3610   24.4735    1.4049 H         1 UNK         0.2990 
     95 H95        24.2062   24.3741   -0.5834 H         1 UNK         0.0690 
     96 H96        23.2960   25.2715   -2.7187 H         1 UNK         0.0788 
     97 H97        23.1822   26.8878   -2.0197 H         1 UNK         0.0788 
     98 H98        22.1731   25.5858   -1.4060 H         1 UNK         0.0788 
     99 H99        25.5804   26.2418   -2.2001 H         1 UNK         0.2993 
    100 H100       27.8099   25.9937   -2.5093 H         1 UNK         0.0949 
    101 H101       28.4629   27.5458    0.0554 H         1 UNK         0.0767 
    102 H102       29.1543   27.8719   -1.5361 H         1 UNK         0.0767 
    103 H103       27.4409   28.1266   -1.2490 H         1 UNK         0.0767 
    104 H104       29.8748   25.6260   -0.5581 H         1 UNK         0.3013 
    105 H105       25.8635   28.1245    1.9093 H         1 UNK         0.3121 
    106 H106       26.8098   30.6792    2.9356 H         1 UNK         0.0774 
    107 H107       25.2488   31.5988    1.2602 H         1 UNK         0.0815 
    108 H108       25.0372   30.0133    0.5303 H         1 UNK         0.0815 
    109 H109       24.4599   30.3186    2.1676 H         1 UNK         0.0815 
    110 H110       29.0842   29.5204    2.3424 H         1 UNK         0.2987 
    111 H111       30.0058   30.1048   -0.4034 H         1 UNK         0.0949 
    112 H112       31.4992   29.0373    2.0577 H         1 UNK         0.0806 
    113 H113       30.7572   28.0193    0.8243 H         1 UNK         0.0806 
    114 H114       32.1131   29.0563    0.4123 H         1 UNK         0.0806 
    115 H115       31.7942   31.4959   -0.8191 H         1 UNK         0.3010 
    116 H116       32.1684   33.8270    0.9776 H         1 UNK         0.0829 
    117 H117       31.8027   34.2628   -1.4435 H         1 UNK         0.0813 
    118 H118       33.4226   34.7428   -0.9662 H         1 UNK         0.0813 
    119 H119       33.1829   33.2479   -1.8604 H         1 UNK         0.0813 
    120 H120       33.0066   32.0591    2.5440 H         1 UNK         0.3038 
    121 H121       35.9160   31.9712    2.5160 H         1 UNK         0.0769 
    122 H122       34.2205   29.3941    2.4649 H         1 UNK         0.0811 
    123 H123       35.9492   29.4563    2.7820 H         1 UNK         0.0811 
    124 H124       35.3362   29.9015    1.2000 H         1 UNK         0.0811 
    125 H125       36.6841   31.1253    4.6153 H         1 UNK         0.3204 
    126 H126       35.4100   32.3447    6.7908 H         1 UNK         0.0748 
    127 H127       37.1994   31.2244    8.1387 H         1 UNK         0.0771 
    128 H128       37.5997   30.1957    6.7703 H         1 UNK         0.0771 
    129 H129       37.8530   31.9397    6.6760 H         1 UNK         0.0771 
    130 H130       34.9858   29.0689    5.5973 H         1 UNK         0.2980 
    131 H131       33.5979   28.0783    7.9318 H         1 UNK         0.0545 
    132 H132       30.8156   30.0658    5.8232 H         1 UNK         0.3459 
    133 H133       32.5131   30.3662    5.5449 H         1 UNK         0.3459 
    134 H134       32.9786   26.1381    6.3932 H         1 UNK         0.0616 
    135 H135       34.6563   26.3946    6.7112 H         1 UNK         0.0616 
    136 H136       32.7370   26.8984    2.5361 H         1 UNK         0.0634 
    137 H137       31.9679   27.6138    3.9266 H         1 UNK         0.0634 
@<TRIPOS>BOND
     1    1    2 1    
     2    1   72 1    
     3    1   73 1    
     4    1   74 1    
     5    2    3 2    
     6    2    4 am   BACKBONE|DICT|INTERRES
     7    4    5 1    
     8    4   75 1    
     9    5    6 1    
    10    5   35 1    
    11    5   76 1    
    12    6    7 1    
    13    6   77 1    
    14    6   78 1    
    15    7    8 1    
    16    8    9 1    
    17    8   79 1    
    18    8   80 1    
    19    9   10 ar   
    20    9   14 ar   
    21   10   11 ar   
    22   10   81 1    
    23   11   12 ar   
    24   11   71 1    
    25   12   13 ar   
    26   12   82 1    
    27   13   14 ar   
    28   13   15 1    
    29   14   83 1    
    30   15   16 1    
    31   15   84 1    
    32   15   85 1    
    33   16   17 1    
    34   17   18 1    
    35   17   86 1    
    36   17   87 1    
    37   18   19 1    
    38   18   37 1    
    39   18   88 1    
    40   19   20 am   BACKBONE|DICT|INTERRES
    41   19   89 1    
    42   20   21 2    
    43   20   22 1    
    44   22   23 1    
    45   22   24 1    
    46   22   90 1    
    47   23   91 1    
    48   23   92 1    
    49   23   93 1    
    50   24   25 am   BACKBONE|DICT|INTERRES
    51   24   94 1    
    52   25   26 2    
    53   25   27 1    
    54   27   28 1    
    55   27   29 1    
    56   27   95 1    
    57   28   96 1    
    58   28   97 1    
    59   28   98 1    
    60   29   30 am   BACKBONE|DICT|INTERRES
    61   29   99 1    
    62   30   31 2    
    63   30   32 1    
    64   32   33 1    
    65   32   34 1    
    66   32  100 1    
    67   33  101 1    
    68   33  102 1    
    69   33  103 1    
    70   34   35 am   BACKBONE|DICT|INTERRES
    71   34  104 1    
    72   35   36 2    
    73   37   38 2    
    74   37   39 am   BACKBONE|DICT|INTERRES
    75   39   40 1    
    76   39  105 1    
    77   40   41 1    
    78   40   42 1    
    79   40  106 1    
    80   41  107 1    
    81   41  108 1    
    82   41  109 1    
    83   42   43 2    
    84   42   44 am   BACKBONE|DICT|INTERRES
    85   44   45 1    
    86   44  110 1    
    87   45   46 1    
    88   45   47 1    
    89   45  111 1    
    90   46  112 1    
    91   46  113 1    
    92   46  114 1    
    93   47   48 2    
    94   47   49 am   BACKBONE|DICT|INTERRES
    95   49   50 1    
    96   49  115 1    
    97   50   51 1    
    98   50   52 1    
    99   50  116 1    
   100   51  117 1    
   101   51  118 1    
   102   51  119 1    
   103   52   53 2    
   104   52   54 am   BACKBONE|DICT|INTERRES
   105   54   55 1    
   106   54  120 1    
   107   55   56 1    
   108   55   57 1    
   109   55  121 1    
   110   56  122 1    
   111   56  123 1    
   112   56  124 1    
   113   57   58 2    
   114   57   59 am   BACKBONE|DICT|INTERRES
   115   59   60 1    
   116   59  125 1    
   117   60   61 1    
   118   60   62 1    
   119   60  126 1    
   120   61  127 1    
   121   61  128 1    
   122   61  129 1    
   123   62   63 2    
   124   62   64 am   BACKBONE|DICT|INTERRES
   125   64   65 1    
   126   64  130 1    
   127   65   66 1    
   128   65   69 1    
   129   65  131 1    
   130   66   67 am   BACKBONE|DICT|INTERRES
   131   66   68 2    
   132   67  132 1    
   133   67  133 1    
   134   69   70 1    
   135   69  134 1    
   136   69  135 1    
   137   70   71 1    
   138   71  136 1    
   139   71  137 1    
@<TRIPOS>SUBSTRUCTURE
     1 UNK         1 GROUP             0       ****    0 ROOT    
