@<TRIPOS>MOLECULE
3R136
137   139    1
SMALL
USER_CHARGES


@<TRIPOS>ATOM
      1 CA         25.9421   20.1933   -0.9630 C.3       0 UNK        -0.1979 
      2 C          26.5004   21.6077   -0.9225 C.2       0 UNK         0.4864 
      3 O          25.9140   22.4729   -0.2702 O.2       0 UNK        -0.5359 
      4 N          27.6271   21.8425   -1.6108 N.am      1 UNK        -0.4318 
      5 CA         28.3287   23.1311   -1.7281 C.3       1 UNK         0.0824 
      6 C6         28.9091   23.6516   -0.3802 C.3       12 UNK        -0.0944 
      7 S7         29.8957   22.3827    0.4869 S.3       12 UNK        -0.2672 
      8 C8         31.6022   22.9966    0.3103 C.3       12 UNK         0.0333 
      9 C9         32.0748   23.7869    1.5255 C.ar      12 UNK        -0.0807 
     10 C10        32.6472   25.0535    1.3690 C.ar      12 UNK        -0.0894 
     11 C11        33.1623   25.7417    2.4730 C.ar      12 UNK        -0.0804 
     12 C12        33.0819   25.1651    3.7445 C.ar      12 UNK        -0.0824 
     13 C13        32.4863   23.9132    3.9187 C.ar      12 UNK        -0.0762 
     14 C14        32.0010   23.2235    2.8042 C.ar      12 UNK        -0.0782 
     15 C15        32.3723   23.2984    5.3066 C.3       12 UNK         0.0230 
     16 S16        30.6409   23.2035    5.8675 S.3       12 UNK        -0.2608 
     17 C17        30.2170   24.9639    6.1063 C.3       12 UNK        -0.0989 
     18 CA         29.5282   25.5992    4.8687 C.3       5 UNK         0.0716 
     19 N          28.3453   24.8444    4.4331 N.am      5 UNK        -0.4135 
     20 C          27.8224   24.8768    3.2006 C.2       4 UNK         0.5031 
     21 O          28.3106   25.5528    2.2890 O.2       4 UNK        -0.5229 
     22 CA         26.5502   24.0351    2.9514 C.3       4 UNK         0.0329 
     23 CB         25.5817   24.0304    4.1555 C.3       4 UNK        -0.2001 
     24 N          25.8455   24.4311    1.7244 N.am      4 UNK        -0.4303 
     25 C          25.3396   25.6379    1.4367 C.2       3 UNK         0.5044 
     26 O          25.2617   26.5752    2.2363 O.2       3 UNK        -0.5152 
     27 CA         24.8547   25.8472   -0.0023 C.3       3 UNK         0.0319 
     28 CB         23.3194   25.8497   -0.0700 C.3       3 UNK        -0.2001 
     29 N          25.3630   27.1477   -0.4354 N.am      3 UNK        -0.4354 
     30 C          26.0800   27.4704   -1.5200 C.2       2 UNK         0.4964 
     31 O          26.4767   28.6218   -1.6867 O.2       2 UNK        -0.5047 
     32 CA         26.4327   26.4038   -2.5750 C.3       2 UNK         0.0288 
     33 CB         27.0557   27.0151   -3.8507 C.3       2 UNK        -0.2113 
     34 N          27.3364   25.3952   -2.0149 N.am      2 UNK        -0.4145 
     35 C          27.4387   24.1445   -2.4877 C.2       1 UNK         0.5006 
     36 O          26.8478   23.7611   -3.5016 O.2       1 UNK        -0.5103 
     37 C          29.1954   27.0951    5.0806 C.2       5 UNK         0.5055 
     38 O          29.4141   27.6356    6.1657 O.2       5 UNK        -0.5220 
     39 N          28.6587   27.7320    4.0364 N.am      6 UNK        -0.4450 
     40 CA         28.2605   29.1364    3.9845 C.3       6 UNK         0.0367 
     41 CB         26.8615   29.3052    4.6101 C.3       6 UNK        -0.1929 
     42 C          28.3277   29.6697    2.5426 C.2       6 UNK         0.5070 
     43 O          27.6478   30.6460    2.2247 O.2       6 UNK        -0.5237 
     44 N          29.1353   29.0260    1.6850 N.am      7 UNK        -0.4739 
     45 CA         29.3070   29.3869    0.2729 C.3       7 UNK         0.0276 
     46 CB         29.9757   28.2152   -0.4655 C.3       7 UNK        -0.1927 
     47 C          30.0920   30.6951    0.0592 C.2       7 UNK         0.5013 
     48 O          29.9660   31.3133   -0.9986 O.2       7 UNK        -0.5193 
     49 N          30.8723   31.0959    1.0658 N.am      8 UNK        -0.4253 
     50 CA         31.6332   32.3341    1.1510 C.3       8 UNK         0.0242 
     51 CB         32.9728   32.1737    0.4077 C.3       8 UNK        -0.2000 
     52 C          31.8613   32.6277    2.6374 C.2       8 UNK         0.4948 
     53 O          31.7084   31.7266    3.4669 O.2       8 UNK        -0.5275 
     54 N          32.2813   33.8601    2.9545 N.am      9 UNK        -0.4246 
     55 CA         32.6349   34.2895    4.3162 C.3       9 UNK         0.0261 
     56 CB         32.9598   35.7919    4.3123 C.3       9 UNK        -0.1959 
     57 C          33.7968   33.4870    4.9353 C.2       9 UNK         0.5033 
     58 O          33.8379   33.3158    6.1543 O.2       9 UNK        -0.5390 
     59 N          34.6904   32.9729    4.0784 N.am      10 UNK        -0.4215 
     60 CA         35.7910   32.0746    4.4297 C.3       10 UNK         0.0240 
     61 CB         36.7155   31.9227    3.2100 C.3       10 UNK        -0.1982 
     62 C          35.3409   30.6890    4.9335 C.2       10 UNK         0.4970 
     63 O          36.1428   30.0121    5.5785 O.2       10 UNK        -0.4916 
     64 N          34.0969   30.2815    4.6397 N.am      11 UNK        -0.4279 
     65 CA         33.5203   29.0079    5.0975 C.3       11 UNK         0.1003 
     66 C          33.1242   28.9880    6.6022 C.2       11 UNK         0.5709 
     67 N          33.0736   30.1207    7.2955 N.am      11 UNK        -0.7358 
     68 O          32.8803   27.9181    7.1544 O.2       11 UNK        -0.4999 
     69 C69        32.3361   28.5409    4.2098 C.3       12 UNK        -0.0954 
     70 S70        32.6997   28.4883    2.4225 S.3       12 UNK        -0.2268 
     71 C71        33.8500   27.0858    2.2834 C.3       12 UNK         0.0203 
     72 H72        24.9368   20.1998   -1.3830 H         1 UNK         0.0888 
     73 H73        26.5588   19.5278   -1.5669 H         1 UNK         0.0888 
     74 H74        25.8883   19.7840    0.0454 H         1 UNK         0.0888 
     75 H75        28.0382   21.0879   -2.1416 H         1 UNK         0.3017 
     76 H76        29.1766   22.9462   -2.3894 H         1 UNK         0.0873 
     77 H77        29.5214   24.5424   -0.5293 H         1 UNK         0.0745 
     78 H78        28.1018   23.9433    0.2873 H         1 UNK         0.0745 
     79 H79        31.6943   23.5812   -0.6062 H         1 UNK         0.0705 
     80 H80        32.2628   22.1374    0.1872 H         1 UNK         0.0705 
     81 H81        32.7205   25.4938    0.3839 H         1 UNK         0.1334 
     82 H82        33.4827   25.6925    4.5993 H         1 UNK         0.1417 
     83 H83        31.5589   22.2450    2.9347 H         1 UNK         0.1562 
     84 H84        32.9606   23.8577    6.0359 H         1 UNK         0.0748 
     85 H85        32.7909   22.2912    5.2852 H         1 UNK         0.0748 
     86 H86        31.1232   25.5163    6.3644 H         1 UNK         0.0940 
     87 H87        29.5663   25.0339    6.9800 H         1 UNK         0.0940 
     88 H88        30.2510   25.5720    4.0514 H         1 UNK         0.0703 
     89 H89        27.8997   24.2767    5.1381 H         1 UNK         0.3081 
     90 H90        26.8885   23.0116    2.7830 H         1 UNK         0.0719 
     91 H91        26.0147   23.5225    5.0175 H         1 UNK         0.0809 
     92 H92        24.6573   23.5056    3.9140 H         1 UNK         0.0809 
     93 H93        25.3162   25.0416    4.4670 H         1 UNK         0.0809 
     94 H94        25.8535   23.7285    0.9830 H         1 UNK         0.2990 
     95 H95        25.2179   25.0334   -0.6261 H         1 UNK         0.0690 
     96 H96        22.9685   26.0170   -1.0884 H         1 UNK         0.0788 
     97 H97        22.8867   26.6242    0.5648 H         1 UNK         0.0788 
     98 H98        22.9150   24.8919    0.2600 H         1 UNK         0.0788 
     99 H99        25.2267   27.8699    0.2593 H         1 UNK         0.2993 
    100 H100       25.4909   25.9279   -2.8575 H         1 UNK         0.0949 
    101 H101       26.4102   27.7877   -4.2707 H         1 UNK         0.0767 
    102 H102       28.0243   27.4722   -3.6447 H         1 UNK         0.0767 
    103 H103       27.1997   26.2640   -4.6273 H         1 UNK         0.0767 
    104 H104       27.8265   25.6542   -1.1701 H         1 UNK         0.3013 
    105 H105       28.4677   27.1760    3.2034 H         1 UNK         0.3121 
    106 H106       28.9744   29.7267    4.5629 H         1 UNK         0.0774 
    107 H107       26.5559   30.3520    4.6190 H         1 UNK         0.0815 
    108 H108       26.1075   28.7467    4.0536 H         1 UNK         0.0815 
    109 H109       26.8416   28.9576    5.6429 H         1 UNK         0.0815 
    110 H110       29.6936   28.2552    2.0233 H         1 UNK         0.2987 
    111 H111       28.3155   29.5426   -0.1542 H         1 UNK         0.0949 
    112 H112       29.3996   27.2968   -0.3540 H         1 UNK         0.0806 
    113 H113       30.0515   28.4224   -1.5338 H         1 UNK         0.0806 
    114 H114       30.9843   28.0261   -0.0964 H         1 UNK         0.0806 
    115 H115       30.8996   30.5453    1.9163 H         1 UNK         0.3010 
    116 H116       31.0520   33.1492    0.7149 H         1 UNK         0.0829 
    117 H117       32.8159   31.9410   -0.6456 H         1 UNK         0.0813 
    118 H118       33.5624   33.0900    0.4485 H         1 UNK         0.0813 
    119 H119       33.5768   31.3730    0.8377 H         1 UNK         0.0813 
    120 H120       32.3813   34.5476    2.2206 H         1 UNK         0.3038 
    121 H121       31.7594   34.1298    4.9492 H         1 UNK         0.0769 
    122 H122       33.8134   36.0205    3.6729 H         1 UNK         0.0811 
    123 H123       33.2032   36.1405    5.3172 H         1 UNK         0.0811 
    124 H124       32.1110   36.3814    3.9650 H         1 UNK         0.0811 
    125 H125       34.5720   33.1788    3.0977 H         1 UNK         0.3204 
    126 H126       36.3589   32.5432    5.2362 H         1 UNK         0.0748 
    127 H127       37.5707   31.2869    3.4442 H         1 UNK         0.0771 
    128 H128       36.1963   31.4707    2.3636 H         1 UNK         0.0771 
    129 H129       37.1112   32.8862    2.8878 H         1 UNK         0.0771 
    130 H130       33.4646   30.8893    4.1315 H         1 UNK         0.2980 
    131 H131       34.3022   28.2531    5.0052 H         1 UNK         0.0545 
    132 H132       33.2837   31.0049    6.8555 H         1 UNK         0.3459 
    133 H133       32.8232   30.0893    8.2708 H         1 UNK         0.3459 
    134 H134       31.4836   29.2069    4.3496 H         1 UNK         0.0616 
    135 H135       31.9933   27.5552    4.5197 H         1 UNK         0.0616 
    136 H136       34.6682   27.2008    2.9946 H         1 UNK         0.0634 
    137 H137       34.3116   27.1224    1.2957 H         1 UNK         0.0634 
@<TRIPOS>BOND
     1    1    2 1    
     2    1   72 1    
     3    1   73 1    
     4    1   74 1    
     5    2    3 2    
     6    2    4 am   BACKBONE|DICT|INTERRES
     7    4    5 1    
     8    4   75 1    
     9    5    6 1    
    10    5   35 1    
    11    5   76 1    
    12    6    7 1    
    13    6   77 1    
    14    6   78 1    
    15    7    8 1    
    16    8    9 1    
    17    8   79 1    
    18    8   80 1    
    19    9   10 ar   
    20    9   14 ar   
    21   10   11 ar   
    22   10   81 1    
    23   11   12 ar   
    24   11   71 1    
    25   12   13 ar   
    26   12   82 1    
    27   13   14 ar   
    28   13   15 1    
    29   14   83 1    
    30   15   16 1    
    31   15   84 1    
    32   15   85 1    
    33   16   17 1    
    34   17   18 1    
    35   17   86 1    
    36   17   87 1    
    37   18   19 1    
    38   18   37 1    
    39   18   88 1    
    40   19   20 am   BACKBONE|DICT|INTERRES
    41   19   89 1    
    42   20   21 2    
    43   20   22 1    
    44   22   23 1    
    45   22   24 1    
    46   22   90 1    
    47   23   91 1    
    48   23   92 1    
    49   23   93 1    
    50   24   25 am   BACKBONE|DICT|INTERRES
    51   24   94 1    
    52   25   26 2    
    53   25   27 1    
    54   27   28 1    
    55   27   29 1    
    56   27   95 1    
    57   28   96 1    
    58   28   97 1    
    59   28   98 1    
    60   29   30 am   BACKBONE|DICT|INTERRES
    61   29   99 1    
    62   30   31 2    
    63   30   32 1    
    64   32   33 1    
    65   32   34 1    
    66   32  100 1    
    67   33  101 1    
    68   33  102 1    
    69   33  103 1    
    70   34   35 am   BACKBONE|DICT|INTERRES
    71   34  104 1    
    72   35   36 2    
    73   37   38 2    
    74   37   39 am   BACKBONE|DICT|INTERRES
    75   39   40 1    
    76   39  105 1    
    77   40   41 1    
    78   40   42 1    
    79   40  106 1    
    80   41  107 1    
    81   41  108 1    
    82   41  109 1    
    83   42   43 2    
    84   42   44 am   BACKBONE|DICT|INTERRES
    85   44   45 1    
    86   44  110 1    
    87   45   46 1    
    88   45   47 1    
    89   45  111 1    
    90   46  112 1    
    91   46  113 1    
    92   46  114 1    
    93   47   48 2    
    94   47   49 am   BACKBONE|DICT|INTERRES
    95   49   50 1    
    96   49  115 1    
    97   50   51 1    
    98   50   52 1    
    99   50  116 1    
   100   51  117 1    
   101   51  118 1    
   102   51  119 1    
   103   52   53 2    
   104   52   54 am   BACKBONE|DICT|INTERRES
   105   54   55 1    
   106   54  120 1    
   107   55   56 1    
   108   55   57 1    
   109   55  121 1    
   110   56  122 1    
   111   56  123 1    
   112   56  124 1    
   113   57   58 2    
   114   57   59 am   BACKBONE|DICT|INTERRES
   115   59   60 1    
   116   59  125 1    
   117   60   61 1    
   118   60   62 1    
   119   60  126 1    
   120   61  127 1    
   121   61  128 1    
   122   61  129 1    
   123   62   63 2    
   124   62   64 am   BACKBONE|DICT|INTERRES
   125   64   65 1    
   126   64  130 1    
   127   65   66 1    
   128   65   69 1    
   129   65  131 1    
   130   66   67 am   BACKBONE|DICT|INTERRES
   131   66   68 2    
   132   67  132 1    
   133   67  133 1    
   134   69   70 1    
   135   69  134 1    
   136   69  135 1    
   137   70   71 1    
   138   71  136 1    
   139   71  137 1    
@<TRIPOS>SUBSTRUCTURE
     1 UNK         1 GROUP             0       ****    0 ROOT    
