@<TRIPOS>MOLECULE
3R136
137   139    1
SMALL
USER_CHARGES


@<TRIPOS>ATOM
      1 CA         29.9023   22.4658   -3.1078 C.3       0 UNK        -0.1979 
      2 C          29.5883   23.6247   -2.1727 C.2       0 UNK         0.4864 
      3 O          29.1224   23.3872   -1.0595 O.2       0 UNK        -0.5359 
      4 N          29.8577   24.8574   -2.6260 N.am      1 UNK        -0.4318 
      5 CA         29.6194   26.1468   -1.9599 C.3       1 UNK         0.0824 
      6 C6         30.2811   26.2814   -0.5619 C.3       12 UNK        -0.0944 
      7 S7         32.0808   26.5292   -0.7094 S.3       12 UNK        -0.2672 
      8 C8         32.7329   24.9412   -0.1034 C.3       12 UNK         0.0333 
      9 C9         32.6725   24.7788    1.4136 C.ar      12 UNK        -0.0807 
     10 C10        33.0421   25.8211    2.2746 C.ar      12 UNK        -0.0894 
     11 C11        33.0664   25.6266    3.6597 C.ar      12 UNK        -0.0804 
     12 C12        32.7214   24.3774    4.1827 C.ar      12 UNK        -0.0824 
     13 C13        32.3335   23.3350    3.3378 C.ar      12 UNK        -0.0762 
     14 C14        32.3106   23.5414    1.9557 C.ar      12 UNK        -0.0782 
     15 C15        31.9514   21.9819    3.9182 C.3       12 UNK         0.0230 
     16 S16        30.1497   21.7295    3.9102 S.3       12 UNK        -0.2608 
     17 C17        29.5788   23.0422    5.0468 C.3       12 UNK        -0.0989 
     18 CA         29.0484   24.3031    4.3088 C.3       5 UNK         0.0716 
     19 N          28.0286   23.9460    3.3142 N.am      5 UNK        -0.4135 
     20 C          27.6592   24.6813    2.2604 C.2       4 UNK         0.5031 
     21 O          28.1110   25.8072    2.0331 O.2       4 UNK        -0.5229 
     22 CA         26.5885   24.0888    1.3205 C.3       4 UNK         0.0329 
     23 CB         25.7189   22.9811    1.9602 C.3       4 UNK        -0.2001 
     24 N          25.7637   25.1559    0.7470 N.am      4 UNK        -0.4303 
     25 C          24.9822   26.0085    1.4285 C.2       3 UNK         0.5044 
     26 O          24.6928   25.8814    2.6192 O.2       3 UNK        -0.5152 
     27 CA         24.4963   27.2391    0.6528 C.3       3 UNK         0.0319 
     28 CB         23.9861   28.3673    1.5713 C.3       3 UNK        -0.2001 
     29 N          25.5839   27.7365   -0.1914 N.am      3 UNK        -0.4354 
     30 C          25.4288   28.2153   -1.4290 C.2       2 UNK         0.4964 
     31 O          24.3355   28.3436   -1.9816 O.2       2 UNK        -0.5047 
     32 CA         26.6990   28.6274   -2.1924 C.3       2 UNK         0.0288 
     33 CB         26.9572   30.1346   -2.0241 C.3       2 UNK        -0.2113 
     34 N          27.9304   27.8981   -1.8619 N.am      2 UNK        -0.4145 
     35 C          28.1339   26.5755   -1.9742 C.2       1 UNK         0.5006 
     36 O          27.2294   25.7540   -2.1460 O.2       1 UNK        -0.5103 
     37 C          28.5597   25.3927    5.2978 C.2       5 UNK         0.5055 
     38 O          28.7249   25.2380    6.5098 O.2       5 UNK        -0.5220 
     39 N          27.9359   26.4568    4.7791 N.am      6 UNK        -0.4450 
     40 CA         27.3161   27.5378    5.5482 C.3       6 UNK         0.0367 
     41 CB         25.8739   27.1420    5.9198 C.3       6 UNK        -0.1929 
     42 C          27.3632   28.8957    4.8250 C.2       6 UNK         0.5070 
     43 O          26.7738   29.8541    5.3262 O.2       6 UNK        -0.5237 
     44 N          28.0503   28.9787    3.6800 N.am      7 UNK        -0.4739 
     45 CA         28.2792   30.2040    2.9184 C.3       7 UNK         0.0276 
     46 CB         27.0390   30.5478    2.0721 C.3       7 UNK        -0.1927 
     47 C          29.5079   29.9912    2.0288 C.2       7 UNK         0.5013 
     48 O          29.8547   28.8403    1.7650 O.2       7 UNK        -0.5193 
     49 N          30.0983   31.1008    1.5620 N.am      8 UNK        -0.4253 
     50 CA         31.2693   31.2112    0.6781 C.3       8 UNK         0.0242 
     51 CB         31.0370   30.4733   -0.6570 C.3       8 UNK        -0.2000 
     52 C          32.5990   30.7812    1.3294 C.2       8 UNK         0.4948 
     53 O          32.6248   29.9760    2.2620 O.2       8 UNK        -0.5275 
     54 N          33.7013   31.3492    0.8168 N.am      9 UNK        -0.4246 
     55 CA         35.0800   31.1568    1.2859 C.3       9 UNK         0.0261 
     56 CB         35.5839   29.7461    0.8970 C.3       9 UNK        -0.1959 
     57 C          35.2129   31.4911    2.7873 C.2       9 UNK         0.5033 
     58 O          34.7859   32.5713    3.2013 O.2       9 UNK        -0.5390 
     59 N          35.7570   30.5595    3.5809 N.am      10 UNK        -0.4215 
     60 CA         35.8638   30.6557    5.0397 C.3       10 UNK         0.0240 
     61 CB         36.8074   29.5498    5.5420 C.3       10 UNK        -0.1982 
     62 C          34.5114   30.5788    5.7774 C.2       10 UNK         0.4970 
     63 O          34.4516   30.9692    6.9441 O.2       10 UNK        -0.4916 
     64 N          33.4674   30.0754    5.1072 N.am      11 UNK        -0.4279 
     65 CA         32.1059   29.9319    5.6398 C.3       11 UNK         0.1003 
     66 C          31.2048   31.1668    5.3525 C.2       11 UNK         0.5709 
     67 N          31.6710   32.1943    4.6497 N.am      11 UNK        -0.7358 
     68 O          30.0664   31.2119    5.8092 O.2       11 UNK        -0.4999 
     69 C69        31.4568   28.6001    5.1685 C.3       12 UNK        -0.0954 
     70 S70        32.3047   27.1492    5.8760 S.3       12 UNK        -0.2268 
     71 C71        33.5317   26.7385    4.5896 C.3       12 UNK         0.0203 
     72 H72        28.9941   21.9041   -3.3249 H         1 UNK         0.0888 
     73 H73        30.3255   22.8045   -4.0533 H         1 UNK         0.0888 
     74 H74        30.6174   21.7901   -2.6394 H         1 UNK         0.0888 
     75 H75        30.2270   24.9433   -3.5624 H         1 UNK         0.3017 
     76 H76        30.1085   26.8692   -2.6163 H         1 UNK         0.0873 
     77 H77        29.8918   27.1489   -0.0337 H         1 UNK         0.0745 
     78 H78        30.0618   25.4337    0.0870 H         1 UNK         0.0745 
     79 H79        33.7756   24.8593   -0.4119 H         1 UNK         0.0705 
     80 H80        32.2006   24.1310   -0.6038 H         1 UNK         0.0705 
     81 H81        33.3310   26.7794    1.8642 H         1 UNK         0.1334 
     82 H82        32.7545   24.2204    5.2523 H         1 UNK         0.1417 
     83 H83        32.0224   22.7287    1.3025 H         1 UNK         0.1562 
     84 H84        32.3288   21.8726    4.9362 H         1 UNK         0.0748 
     85 H85        32.4216   21.1900    3.3333 H         1 UNK         0.0748 
     86 H86        30.3920   23.3072    5.7251 H         1 UNK         0.0940 
     87 H87        28.7956   22.6155    5.6764 H         1 UNK         0.0940 
     88 H88        29.8864   24.7477    3.7682 H         1 UNK         0.0703 
     89 H89        27.5971   23.0428    3.4405 H         1 UNK         0.3081 
     90 H90        27.1240   23.6429    0.4841 H         1 UNK         0.0719 
     91 H91        26.3110   22.0935    2.1856 H         1 UNK         0.0809 
     92 H92        24.9265   22.6655    1.2815 H         1 UNK         0.0809 
     93 H93        25.2472   23.3099    2.8870 H         1 UNK         0.0809 
     94 H94        25.9600   25.3698   -0.2237 H         1 UNK         0.2990 
     95 H95        23.6670   26.8991    0.0289 H         1 UNK         0.0690 
     96 H96        23.6923   29.2470    0.9987 H         1 UNK         0.0788 
     97 H97        24.7448   28.6712    2.2929 H         1 UNK         0.0788 
     98 H98        23.1124   28.0426    2.1376 H         1 UNK         0.0788 
     99 H99        26.5195   27.6381    0.1811 H         1 UNK         0.2993 
    100 H100       26.4966   28.4373   -3.2487 H         1 UNK         0.0949 
    101 H101       26.0647   30.7156   -2.2620 H         1 UNK         0.0767 
    102 H102       27.2457   30.3840   -1.0026 H         1 UNK         0.0767 
    103 H103       27.7492   30.4789   -2.6895 H         1 UNK         0.0767 
    104 H104       28.7372   28.4787   -1.6851 H         1 UNK         0.3013 
    105 H105       27.8334   26.4868    3.7668 H         1 UNK         0.3121 
    106 H106       27.8818   27.6793    6.4716 H         1 UNK         0.0774 
    107 H107       25.3997   27.9076    6.5349 H         1 UNK         0.0815 
    108 H108       25.2563   27.0078    5.0313 H         1 UNK         0.0815 
    109 H109       25.8490   26.2129    6.4891 H         1 UNK         0.0815 
    110 H110       28.5684   28.1846    3.3207 H         1 UNK         0.2987 
    111 H111       28.4897   31.0213    3.6112 H         1 UNK         0.0949 
    112 H112       26.1637   30.7210    2.6980 H         1 UNK         0.0806 
    113 H113       27.1982   31.4541    1.4869 H         1 UNK         0.0806 
    114 H114       26.7998   29.7463    1.3744 H         1 UNK         0.0806 
    115 H115       29.7261   31.9868    1.8731 H         1 UNK         0.3010 
    116 H116       31.3554   32.2760    0.4553 H         1 UNK         0.0829 
    117 H117       30.1023   30.7818   -1.1249 H         1 UNK         0.0813 
    118 H118       31.8388   30.6825   -1.3659 H         1 UNK         0.0813 
    119 H119       31.0071   29.3925   -0.5211 H         1 UNK         0.0813 
    120 H120       33.5886   32.0238    0.0730 H         1 UNK         0.3038 
    121 H121       35.6948   31.8869    0.7575 H         1 UNK         0.0769 
    122 H122       35.0224   28.9537    1.3939 H         1 UNK         0.0811 
    123 H123       36.6394   29.6173    1.1399 H         1 UNK         0.0811 
    124 H124       35.4881   29.5837   -0.1767 H         1 UNK         0.0811 
    125 H125       36.0729   29.6991    3.1576 H         1 UNK         0.3204 
    126 H126       36.3095   31.6229    5.2818 H         1 UNK         0.0748 
    127 H127       36.9436   29.6131    6.6227 H         1 UNK         0.0771 
    128 H128       36.4174   28.5551    5.3216 H         1 UNK         0.0771 
    129 H129       37.7955   29.6332    5.0888 H         1 UNK         0.0771 
    130 H130       33.5581   29.8575    4.1213 H         1 UNK         0.2980 
    131 H131       32.1651   29.8847    6.7287 H         1 UNK         0.0545 
    132 H132       32.6098   32.1778    4.2790 H         1 UNK         0.3459 
    133 H133       31.0848   33.0003    4.5068 H         1 UNK         0.3459 
    134 H134       31.4391   28.5232    4.0808 H         1 UNK         0.0616 
    135 H135       30.4168   28.5439    5.4929 H         1 UNK         0.0616 
    136 H136       34.4489   26.4142    5.0825 H         1 UNK         0.0634 
    137 H137       33.7932   27.6311    4.0212 H         1 UNK         0.0634 
@<TRIPOS>BOND
     1    1    2 1    
     2    1   72 1    
     3    1   73 1    
     4    1   74 1    
     5    2    3 2    
     6    2    4 am   BACKBONE|DICT|INTERRES
     7    4    5 1    
     8    4   75 1    
     9    5    6 1    
    10    5   35 1    
    11    5   76 1    
    12    6    7 1    
    13    6   77 1    
    14    6   78 1    
    15    7    8 1    
    16    8    9 1    
    17    8   79 1    
    18    8   80 1    
    19    9   10 ar   
    20    9   14 ar   
    21   10   11 ar   
    22   10   81 1    
    23   11   12 ar   
    24   11   71 1    
    25   12   13 ar   
    26   12   82 1    
    27   13   14 ar   
    28   13   15 1    
    29   14   83 1    
    30   15   16 1    
    31   15   84 1    
    32   15   85 1    
    33   16   17 1    
    34   17   18 1    
    35   17   86 1    
    36   17   87 1    
    37   18   19 1    
    38   18   37 1    
    39   18   88 1    
    40   19   20 am   BACKBONE|DICT|INTERRES
    41   19   89 1    
    42   20   21 2    
    43   20   22 1    
    44   22   23 1    
    45   22   24 1    
    46   22   90 1    
    47   23   91 1    
    48   23   92 1    
    49   23   93 1    
    50   24   25 am   BACKBONE|DICT|INTERRES
    51   24   94 1    
    52   25   26 2    
    53   25   27 1    
    54   27   28 1    
    55   27   29 1    
    56   27   95 1    
    57   28   96 1    
    58   28   97 1    
    59   28   98 1    
    60   29   30 am   BACKBONE|DICT|INTERRES
    61   29   99 1    
    62   30   31 2    
    63   30   32 1    
    64   32   33 1    
    65   32   34 1    
    66   32  100 1    
    67   33  101 1    
    68   33  102 1    
    69   33  103 1    
    70   34   35 am   BACKBONE|DICT|INTERRES
    71   34  104 1    
    72   35   36 2    
    73   37   38 2    
    74   37   39 am   BACKBONE|DICT|INTERRES
    75   39   40 1    
    76   39  105 1    
    77   40   41 1    
    78   40   42 1    
    79   40  106 1    
    80   41  107 1    
    81   41  108 1    
    82   41  109 1    
    83   42   43 2    
    84   42   44 am   BACKBONE|DICT|INTERRES
    85   44   45 1    
    86   44  110 1    
    87   45   46 1    
    88   45   47 1    
    89   45  111 1    
    90   46  112 1    
    91   46  113 1    
    92   46  114 1    
    93   47   48 2    
    94   47   49 am   BACKBONE|DICT|INTERRES
    95   49   50 1    
    96   49  115 1    
    97   50   51 1    
    98   50   52 1    
    99   50  116 1    
   100   51  117 1    
   101   51  118 1    
   102   51  119 1    
   103   52   53 2    
   104   52   54 am   BACKBONE|DICT|INTERRES
   105   54   55 1    
   106   54  120 1    
   107   55   56 1    
   108   55   57 1    
   109   55  121 1    
   110   56  122 1    
   111   56  123 1    
   112   56  124 1    
   113   57   58 2    
   114   57   59 am   BACKBONE|DICT|INTERRES
   115   59   60 1    
   116   59  125 1    
   117   60   61 1    
   118   60   62 1    
   119   60  126 1    
   120   61  127 1    
   121   61  128 1    
   122   61  129 1    
   123   62   63 2    
   124   62   64 am   BACKBONE|DICT|INTERRES
   125   64   65 1    
   126   64  130 1    
   127   65   66 1    
   128   65   69 1    
   129   65  131 1    
   130   66   67 am   BACKBONE|DICT|INTERRES
   131   66   68 2    
   132   67  132 1    
   133   67  133 1    
   134   69   70 1    
   135   69  134 1    
   136   69  135 1    
   137   70   71 1    
   138   71  136 1    
   139   71  137 1    
@<TRIPOS>SUBSTRUCTURE
     1 UNK         1 GROUP             0       ****    0 ROOT    
