@<TRIPOS>MOLECULE
3R136
137   139    1
SMALL
USER_CHARGES


@<TRIPOS>ATOM
      1 CA         29.4701   21.5552   -4.9553 C.3       0 UNK        -0.1979 
      2 C          29.4120   22.3579   -3.6639 C.2       0 UNK         0.4864 
      3 O          28.6819   23.3476   -3.5915 O.2       0 UNK        -0.5359 
      4 N          30.1804   21.9447   -2.6471 N.am      1 UNK        -0.4318 
      5 CA         30.2012   22.5529   -1.3151 C.3       1 UNK         0.0824 
      6 C6         31.4606   22.1194   -0.5274 C.3       12 UNK        -0.0944 
      7 S7         31.7811   23.1839    0.9159 S.3       12 UNK        -0.2672 
      8 C8         31.4559   22.0195    2.2734 C.3       12 UNK         0.0333 
      9 C9         31.7012   22.6862    3.6153 C.ar      12 UNK        -0.0807 
     10 C10        32.9891   22.7144    4.1590 C.ar      12 UNK        -0.0894 
     11 C11        33.2301   23.3635    5.3735 C.ar      12 UNK        -0.0804 
     12 C12        32.1685   23.9645    6.0545 C.ar      12 UNK        -0.0824 
     13 C13        30.8826   23.9594    5.5092 C.ar      12 UNK        -0.0762 
     14 C14        30.6492   23.3062    4.2957 C.ar      12 UNK        -0.0782 
     15 C15        29.7658   24.7074    6.2157 C.3       12 UNK         0.0230 
     16 S16        29.8406   26.4836    5.8268 S.3       12 UNK        -0.2608 
     17 C17        28.9689   26.5279    4.2223 C.3       12 UNK        -0.0989 
     18 CA         29.1422   27.8631    3.4599 C.3       5 UNK         0.0716 
     19 N          28.5375   27.7901    2.1281 N.am      5 UNK        -0.4135 
     20 C          28.5273   28.7745    1.2141 C.2       4 UNK         0.5031 
     21 O          29.1077   29.8521    1.3583 O.2       4 UNK        -0.5229 
     22 CA         27.7250   28.5380   -0.0815 C.3       4 UNK         0.0329 
     23 CB         28.6693   28.1389   -1.2265 C.3       4 UNK        -0.2001 
     24 N          26.6754   27.5233    0.0513 N.am      4 UNK        -0.4303 
     25 C          25.6039   27.6181    0.8519 C.2       3 UNK         0.5044 
     26 O          25.2997   28.6431    1.4604 O.2       3 UNK        -0.5152 
     27 CA         24.7313   26.3597    1.0340 C.3       3 UNK         0.0319 
     28 CB         23.3755   26.5434    0.3318 C.3       3 UNK        -0.2001 
     29 N          25.3245   25.0902    0.5895 N.am      3 UNK        -0.4354 
     30 C          26.4705   24.5361    1.0139 C.2       2 UNK         0.4964 
     31 O          27.2530   25.0908    1.7877 O.2       2 UNK        -0.5047 
     32 CA         26.8263   23.1486    0.4569 C.3       2 UNK         0.0288 
     33 CB         25.7611   22.5574   -0.5003 C.3       2 UNK        -0.2113 
     34 N          28.1242   23.2439   -0.2073 N.am      2 UNK        -0.4145 
     35 C          28.8959   22.2118   -0.5667 C.2       1 UNK         0.5006 
     36 O          28.6179   21.0300   -0.3460 O.2       1 UNK        -0.5103 
     37 C          28.5746   29.0591    4.2534 C.2       5 UNK         0.5055 
     38 O          27.3666   29.1186    4.4908 O.2       5 UNK        -0.5220 
     39 N          29.4610   30.0004    4.5992 N.am      6 UNK        -0.4450 
     40 CA         29.2456   31.2741    5.2977 C.3       6 UNK         0.0367 
     41 CB         28.5640   31.0733    6.6649 C.3       6 UNK        -0.1929 
     42 C          28.5241   32.3443    4.4579 C.2       6 UNK         0.5070 
     43 O          28.7917   33.5291    4.6575 O.2       6 UNK        -0.5237 
     44 N          27.6492   31.9325    3.5310 N.am      7 UNK        -0.4739 
     45 CA         26.9490   32.8055    2.5870 C.3       7 UNK         0.0276 
     46 CB         25.8386   32.0139    1.8793 C.3       7 UNK        -0.1927 
     47 C          27.9012   33.4425    1.5625 C.2       7 UNK         0.5013 
     48 O          27.8111   34.6478    1.3248 O.2       7 UNK        -0.5193 
     49 N          28.8000   32.6285    0.9933 N.am      8 UNK        -0.4253 
     50 CA         29.8767   33.0726    0.1106 C.3       8 UNK         0.0242 
     51 CB         30.0704   32.0599   -1.0314 C.3       8 UNK        -0.2000 
     52 C          31.1703   33.2513    0.9149 C.2       8 UNK         0.4948 
     53 O          31.7863   34.3151    0.8378 O.2       8 UNK        -0.5275 
     54 N          31.5480   32.2209    1.6821 N.am      9 UNK        -0.4246 
     55 CA         32.7357   32.1786    2.5324 C.3       9 UNK         0.0261 
     56 CB         34.0094   32.0572    1.6716 C.3       9 UNK        -0.1959 
     57 C          32.6190   30.9750    3.4701 C.2       9 UNK         0.5033 
     58 O          31.8625   30.0437    3.1774 O.2       9 UNK        -0.5390 
     59 N          33.3841   30.9814    4.5685 N.am      10 UNK        -0.4215 
     60 CA         33.5319   29.8294    5.4629 C.3       10 UNK         0.0240 
     61 CB         34.3466   30.2349    6.7020 C.3       10 UNK        -0.1982 
     62 C          34.1998   28.6654    4.7107 C.2       10 UNK         0.4970 
     63 O          35.3101   28.8392    4.2034 O.2       10 UNK        -0.4916 
     64 N          33.4838   27.5397    4.6091 N.am      11 UNK        -0.4279 
     65 CA         33.8221   26.3834    3.7604 C.3       11 UNK         0.1003 
     66 C          33.7472   26.6724    2.2280 C.2       11 UNK         0.5709 
     67 N          33.0671   27.7229    1.7788 N.am      11 UNK        -0.7358 
     68 O          34.2981   25.9251    1.4235 O.2       11 UNK        -0.4999 
     69 C69        35.1415   25.6579    4.1747 C.3       12 UNK        -0.0954 
     70 S70        35.2163   25.2089    5.9446 S.3       12 UNK        -0.2268 
     71 C71        34.6448   23.4770    5.9211 C.3       12 UNK         0.0203 
     72 H72        29.7932   22.1919   -5.7784 H         1 UNK         0.0888 
     73 H73        30.1623   20.7164   -4.8837 H         1 UNK         0.0888 
     74 H74        28.4833   21.1609   -5.1960 H         1 UNK         0.0888 
     75 H75        30.7363   21.1085   -2.7556 H         1 UNK         0.3017 
     76 H76        30.2533   23.6351   -1.4576 H         1 UNK         0.0873 
     77 H77        31.4025   21.0706   -0.2290 H         1 UNK         0.0745 
     78 H78        32.3398   22.1954   -1.1694 H         1 UNK         0.0745 
     79 H79        30.4278   21.6592    2.2083 H         1 UNK         0.0705 
     80 H80        32.1006   21.1453    2.1687 H         1 UNK         0.0705 
     81 H81        33.8079   22.2594    3.6182 H         1 UNK         0.1334 
     82 H82        32.3558   24.4863    6.9834 H         1 UNK         0.1417 
     83 H83        29.6568   23.3051    3.8650 H         1 UNK         0.1562 
     84 H84        29.8623   24.5766    7.2946 H         1 UNK         0.0748 
     85 H85        28.7889   24.3040    5.9444 H         1 UNK         0.0748 
     86 H86        27.9112   26.3139    4.3899 H         1 UNK         0.0940 
     87 H87        29.3471   25.7142    3.6029 H         1 UNK         0.0940 
     88 H88        30.2112   28.0164    3.3035 H         1 UNK         0.0703 
     89 H89        28.0211   26.9398    1.9277 H         1 UNK         0.3081 
     90 H90        27.2461   29.4833   -0.3446 H         1 UNK         0.0719 
     91 H91        29.1705   27.1910   -1.0264 H         1 UNK         0.0809 
     92 H92        29.4454   28.8912   -1.3729 H         1 UNK         0.0809 
     93 H93        28.1323   28.0443   -2.1705 H         1 UNK         0.0809 
     94 H94        26.8254   26.6482   -0.4272 H         1 UNK         0.2990 
     95 H95        24.5476   26.2650    2.1061 H         1 UNK         0.0690 
     96 H96        22.6981   25.7176    0.5507 H         1 UNK         0.0788 
     97 H97        23.4885   26.6094   -0.7511 H         1 UNK         0.0788 
     98 H98        22.8818   27.4581    0.6638 H         1 UNK         0.0788 
     99 H99        24.7736   24.5570   -0.0683 H         1 UNK         0.2993 
    100 H100       26.9276   22.4850    1.3183 H         1 UNK         0.0949 
    101 H101       26.0183   21.5420   -0.8015 H         1 UNK         0.0767 
    102 H102       24.7829   22.4952   -0.0213 H         1 UNK         0.0767 
    103 H103       25.6581   23.1486   -1.4114 H         1 UNK         0.0767 
    104 H104       28.4522   24.1837   -0.3813 H         1 UNK         0.3013 
    105 H105       30.3967   29.8943    4.2077 H         1 UNK         0.3121 
    106 H106       30.2459   31.6649    5.4914 H         1 UNK         0.0774 
    107 H107       28.5391   32.0086    7.2253 H         1 UNK         0.0815 
    108 H108       27.5332   30.7331    6.5627 H         1 UNK         0.0815 
    109 H109       29.1004   30.3444    7.2725 H         1 UNK         0.0815 
    110 H110       27.4613   30.9380    3.4735 H         1 UNK         0.2987 
    111 H111       26.4837   33.6125    3.1573 H         1 UNK         0.0949 
    112 H112       26.2430   31.1911    1.2893 H         1 UNK         0.0806 
    113 H113       25.1308   31.5936    2.5940 H         1 UNK         0.0806 
    114 H114       25.2738   32.6547    1.2010 H         1 UNK         0.0806 
    115 H115       28.8075   31.6431    1.2525 H         1 UNK         0.3010 
    116 H116       29.6197   34.0348   -0.3380 H         1 UNK         0.0829 
    117 H117       29.1504   31.9242   -1.6002 H         1 UNK         0.0813 
    118 H118       30.8357   32.4041   -1.7281 H         1 UNK         0.0813 
    119 H119       30.3831   31.0821   -0.6646 H         1 UNK         0.0813 
    120 H120       30.9874   31.3748    1.7116 H         1 UNK         0.3038 
    121 H121       32.7742   33.0894    3.1335 H         1 UNK         0.0769 
    122 H122       34.1410   32.9219    1.0215 H         1 UNK         0.0811 
    123 H123       33.9821   31.1669    1.0417 H         1 UNK         0.0811 
    124 H124       34.9028   31.9877    2.2935 H         1 UNK         0.0811 
    125 H125       34.0061   31.7610    4.7280 H         1 UNK         0.3204 
    126 H126       32.5367   29.5241    5.7943 H         1 UNK         0.0748 
    127 H127       33.8562   31.0364    7.2550 H         1 UNK         0.0771 
    128 H128       34.4592   29.3919    7.3852 H         1 UNK         0.0771 
    129 H129       35.3487   30.5739    6.4356 H         1 UNK         0.0771 
    130 H130       32.5803   27.4920    5.0564 H         1 UNK         0.2980 
    131 H131       33.0053   25.6820    3.9199 H         1 UNK         0.0545 
    132 H132       33.0265   27.8816    0.7858 H         1 UNK         0.3459 
    133 H133       32.6223   28.3804    2.4091 H         1 UNK         0.3459 
    134 H134       35.2769   24.7491    3.5860 H         1 UNK         0.0616 
    135 H135       36.0056   26.2848    3.9516 H         1 UNK         0.0616 
    136 H136       34.6705   23.0805    6.9369 H         1 UNK         0.0634 
    137 H137       35.3429   22.8768    5.3355 H         1 UNK         0.0634 
@<TRIPOS>BOND
     1    1    2 1    
     2    1   72 1    
     3    1   73 1    
     4    1   74 1    
     5    2    3 2    
     6    2    4 am   BACKBONE|DICT|INTERRES
     7    4    5 1    
     8    4   75 1    
     9    5    6 1    
    10    5   35 1    
    11    5   76 1    
    12    6    7 1    
    13    6   77 1    
    14    6   78 1    
    15    7    8 1    
    16    8    9 1    
    17    8   79 1    
    18    8   80 1    
    19    9   10 ar   
    20    9   14 ar   
    21   10   11 ar   
    22   10   81 1    
    23   11   12 ar   
    24   11   71 1    
    25   12   13 ar   
    26   12   82 1    
    27   13   14 ar   
    28   13   15 1    
    29   14   83 1    
    30   15   16 1    
    31   15   84 1    
    32   15   85 1    
    33   16   17 1    
    34   17   18 1    
    35   17   86 1    
    36   17   87 1    
    37   18   19 1    
    38   18   37 1    
    39   18   88 1    
    40   19   20 am   BACKBONE|DICT|INTERRES
    41   19   89 1    
    42   20   21 2    
    43   20   22 1    
    44   22   23 1    
    45   22   24 1    
    46   22   90 1    
    47   23   91 1    
    48   23   92 1    
    49   23   93 1    
    50   24   25 am   BACKBONE|DICT|INTERRES
    51   24   94 1    
    52   25   26 2    
    53   25   27 1    
    54   27   28 1    
    55   27   29 1    
    56   27   95 1    
    57   28   96 1    
    58   28   97 1    
    59   28   98 1    
    60   29   30 am   BACKBONE|DICT|INTERRES
    61   29   99 1    
    62   30   31 2    
    63   30   32 1    
    64   32   33 1    
    65   32   34 1    
    66   32  100 1    
    67   33  101 1    
    68   33  102 1    
    69   33  103 1    
    70   34   35 am   BACKBONE|DICT|INTERRES
    71   34  104 1    
    72   35   36 2    
    73   37   38 2    
    74   37   39 am   BACKBONE|DICT|INTERRES
    75   39   40 1    
    76   39  105 1    
    77   40   41 1    
    78   40   42 1    
    79   40  106 1    
    80   41  107 1    
    81   41  108 1    
    82   41  109 1    
    83   42   43 2    
    84   42   44 am   BACKBONE|DICT|INTERRES
    85   44   45 1    
    86   44  110 1    
    87   45   46 1    
    88   45   47 1    
    89   45  111 1    
    90   46  112 1    
    91   46  113 1    
    92   46  114 1    
    93   47   48 2    
    94   47   49 am   BACKBONE|DICT|INTERRES
    95   49   50 1    
    96   49  115 1    
    97   50   51 1    
    98   50   52 1    
    99   50  116 1    
   100   51  117 1    
   101   51  118 1    
   102   51  119 1    
   103   52   53 2    
   104   52   54 am   BACKBONE|DICT|INTERRES
   105   54   55 1    
   106   54  120 1    
   107   55   56 1    
   108   55   57 1    
   109   55  121 1    
   110   56  122 1    
   111   56  123 1    
   112   56  124 1    
   113   57   58 2    
   114   57   59 am   BACKBONE|DICT|INTERRES
   115   59   60 1    
   116   59  125 1    
   117   60   61 1    
   118   60   62 1    
   119   60  126 1    
   120   61  127 1    
   121   61  128 1    
   122   61  129 1    
   123   62   63 2    
   124   62   64 am   BACKBONE|DICT|INTERRES
   125   64   65 1    
   126   64  130 1    
   127   65   66 1    
   128   65   69 1    
   129   65  131 1    
   130   66   67 am   BACKBONE|DICT|INTERRES
   131   66   68 2    
   132   67  132 1    
   133   67  133 1    
   134   69   70 1    
   135   69  134 1    
   136   69  135 1    
   137   70   71 1    
   138   71  136 1    
   139   71  137 1    
@<TRIPOS>SUBSTRUCTURE
     1 UNK         1 GROUP             0       ****    0 ROOT    
