@<TRIPOS>MOLECULE
3R136
137   139    1
SMALL
USER_CHARGES


@<TRIPOS>ATOM
      1 CA         25.6610   31.0164    2.0445 C.3       0 UNK        -0.1979 
      2 C          25.6652   29.6360    1.4057 C.2       0 UNK         0.4864 
      3 O          24.6594   28.9281    1.4737 O.2       0 UNK        -0.5359 
      4 N          26.7922   29.2441    0.7984 N.am      1 UNK        -0.4318 
      5 CA         26.9982   27.9596    0.1230 C.3       1 UNK         0.0824 
      6 C6         28.5008   27.6789   -0.1216 C.3       12 UNK        -0.0944 
      7 S7         29.4152   27.4617    1.4335 S.3       12 UNK        -0.2672 
      8 C8         31.0918   27.1916    0.7873 C.3       12 UNK         0.0333 
      9 C9         31.8753   26.3268    1.7553 C.ar      12 UNK        -0.0807 
     10 C10        32.5764   26.9060    2.8129 C.ar      12 UNK        -0.0894 
     11 C11        33.2303   26.1054    3.7541 C.ar      12 UNK        -0.0804 
     12 C12        33.1756   24.7125    3.6255 C.ar      12 UNK        -0.0824 
     13 C13        32.4875   24.1177    2.5602 C.ar      12 UNK        -0.0762 
     14 C14        31.8617   24.9384    1.6151 C.ar      12 UNK        -0.0782 
     15 C15        32.4523   22.5923    2.4459 C.3       12 UNK         0.0230 
     16 S16        30.9660   21.9073    1.6236 S.3       12 UNK        -0.2608 
     17 C17        29.6233   22.4546    2.7327 C.3       12 UNK        -0.0989 
     18 CA         28.6130   23.3988    2.0299 C.3       5 UNK         0.0716 
     19 N          27.9319   22.7473    0.9072 N.am      5 UNK        -0.4135 
     20 C          27.1296   23.3681    0.0331 C.2       4 UNK         0.5031 
     21 O          26.8990   24.5804    0.0474 O.2       4 UNK        -0.5229 
     22 CA         26.4445   22.4706   -1.0120 C.3       4 UNK         0.0329 
     23 CB         25.1951   21.8059   -0.4111 C.3       4 UNK        -0.2001 
     24 N          26.0425   23.2437   -2.1861 N.am      4 UNK        -0.4303 
     25 C          26.8670   23.6820   -3.1433 C.2       3 UNK         0.5044 
     26 O          28.0531   23.3597   -3.2247 O.2       3 UNK        -0.5152 
     27 CA         26.2811   24.6644   -4.1751 C.3       3 UNK         0.0319 
     28 CB         25.4131   23.9392   -5.2227 C.3       3 UNK        -0.2001 
     29 N          25.5798   25.8063   -3.5683 N.am      3 UNK        -0.4354 
     30 C          24.4304   25.8260   -2.8775 C.2       2 UNK         0.4964 
     31 O          23.7262   24.8331   -2.6826 O.2       2 UNK        -0.5047 
     32 CA         24.0518   27.1755   -2.2389 C.3       2 UNK         0.0288 
     33 CB         22.5895   27.2134   -1.7572 C.3       2 UNK        -0.2113 
     34 N          24.9308   27.4610   -1.1038 N.am      2 UNK        -0.4145 
     35 C          26.1977   27.8849   -1.1929 C.2       1 UNK         0.5006 
     36 O          26.7314   28.2002   -2.2604 O.2       1 UNK        -0.5103 
     37 C          27.5970   23.9398    3.0540 C.2       5 UNK         0.5055 
     38 O          26.6562   23.2284    3.4167 O.2       5 UNK        -0.5220 
     39 N          27.8330   25.1675    3.5219 N.am      6 UNK        -0.4450 
     40 CA         27.0559   25.8386    4.5556 C.3       6 UNK         0.0367 
     41 CB         25.8874   26.6197    3.9220 C.3       6 UNK        -0.1929 
     42 C          28.0306   26.7050    5.3577 C.2       6 UNK         0.5070 
     43 O          28.6637   26.1945    6.2820 O.2       6 UNK        -0.5237 
     44 N          28.1689   27.9763    4.9726 N.am      7 UNK        -0.4739 
     45 CA         29.1393   28.9187    5.5142 C.3       7 UNK         0.0276 
     46 CB         28.5858   29.5810    6.7883 C.3       7 UNK        -0.1927 
     47 C          29.4452   29.9630    4.4379 C.2       7 UNK         0.5013 
     48 O          28.5562   30.3092    3.6552 O.2       7 UNK        -0.5193 
     49 N          30.6831   30.4599    4.4396 N.am      8 UNK        -0.4253 
     50 CA         31.2007   31.5015    3.5598 C.3       8 UNK         0.0242 
     51 CB         31.4445   30.9363    2.1451 C.3       8 UNK        -0.2000 
     52 C          32.5038   32.0216    4.1779 C.2       8 UNK         0.4948 
     53 O          33.0207   31.4092    5.1172 O.2       8 UNK        -0.5275 
     54 N          33.0516   33.1059    3.6105 N.am      9 UNK        -0.4246 
     55 CA         34.3327   33.7086    4.0128 C.3       9 UNK         0.0261 
     56 CB         34.5946   34.9650    3.1668 C.3       9 UNK        -0.1959 
     57 C          35.5347   32.7457    3.9340 C.2       9 UNK         0.5033 
     58 O          36.4881   32.9004    4.6989 O.2       9 UNK        -0.5390 
     59 N          35.4392   31.7384    3.0535 N.am      10 UNK        -0.4215 
     60 CA         36.3716   30.6173    2.9172 C.3       10 UNK         0.0240 
     61 CB         35.9152   29.7312    1.7457 C.3       10 UNK        -0.1982 
     62 C          36.5341   29.7647    4.1911 C.2       10 UNK         0.4970 
     63 O          37.5699   29.1141    4.3348 O.2       10 UNK        -0.4916 
     64 N          35.5344   29.7747    5.0858 N.am      11 UNK        -0.4279 
     65 CA         35.5902   29.0938    6.3887 C.3       11 UNK         0.1003 
     66 C          36.4561   29.8373    7.4495 C.2       11 UNK         0.5709 
     67 N          36.9171   31.0606    7.2075 N.am      11 UNK        -0.7358 
     68 O          36.7250   29.2856    8.5141 O.2       11 UNK        -0.4999 
     69 C69        34.1748   28.7809    6.9507 C.3       12 UNK        -0.0954 
     70 S70        32.9995   27.9439    5.8254 S.3       12 UNK        -0.2268 
     71 C71        34.0156   26.7524    4.8879 C.3       12 UNK         0.0203 
     72 H72        24.8641   31.6264    1.6201 H         1 UNK         0.0888 
     73 H73        25.4936   30.9298    3.1177 H         1 UNK         0.0888 
     74 H74        26.6069   31.5367    1.8935 H         1 UNK         0.0888 
     75 H75        27.5925   29.8601    0.8050 H         1 UNK         0.3017 
     76 H76        26.6198   27.1691    0.7746 H         1 UNK         0.0873 
     77 H77        28.6248   26.7641   -0.7056 H         1 UNK         0.0745 
     78 H78        28.9622   28.4832   -0.6981 H         1 UNK         0.0745 
     79 H79        31.0469   26.7080   -0.1898 H         1 UNK         0.0705 
     80 H80        31.5861   28.1523    0.6369 H         1 UNK         0.0705 
     81 H81        32.5962   27.9813    2.9182 H         1 UNK         0.1334 
     82 H82        33.6780   24.0886    4.3523 H         1 UNK         0.1417 
     83 H83        31.3367   24.5006    0.7779 H         1 UNK         0.1562 
     84 H84        32.5317   22.1412    3.4364 H         1 UNK         0.0748 
     85 H85        33.3333   22.2697    1.8898 H         1 UNK         0.0748 
     86 H86        30.0628   22.9464    3.6032 H         1 UNK         0.0940 
     87 H87        29.1155   21.5680    3.1181 H         1 UNK         0.0940 
     88 H88        29.1565   24.2505    1.6184 H         1 UNK         0.0703 
     89 H89        28.0527   21.7479    0.8387 H         1 UNK         0.3081 
     90 H90        27.1457   21.6939   -1.3249 H         1 UNK         0.0719 
     91 H91        24.4641   22.5469   -0.0839 H         1 UNK         0.0809 
     92 H92        24.7078   21.1511   -1.1338 H         1 UNK         0.0809 
     93 H93        25.4509   21.1962    0.4565 H         1 UNK         0.0809 
     94 H94        25.0971   23.6165   -2.1903 H         1 UNK         0.2990 
     95 H95        27.1299   25.0983   -4.7064 H         1 UNK         0.0690 
     96 H96        25.0487   24.6309   -5.9821 H         1 UNK         0.0788 
     97 H97        24.5492   23.4477   -4.7748 H         1 UNK         0.0788 
     98 H98        25.9903   23.1690   -5.7359 H         1 UNK         0.0788 
     99 H99        26.1076   26.6735   -3.5691 H         1 UNK         0.2993 
    100 H100       24.1767   27.9532   -2.9958 H         1 UNK         0.0949 
    101 H101       22.3998   26.4762   -0.9759 H         1 UNK         0.0767 
    102 H102       22.3299   28.1950   -1.3599 H         1 UNK         0.0767 
    103 H103       21.9029   27.0039   -2.5786 H         1 UNK         0.0767 
    104 H104       24.5568   27.2805   -0.1811 H         1 UNK         0.3013 
    105 H105       28.6390   25.6789    3.1830 H         1 UNK         0.3121 
    106 H106       26.6436   25.1005    5.2474 H         1 UNK         0.0774 
    107 H107       25.3441   27.1947    4.6730 H         1 UNK         0.0815 
    108 H108       25.1723   25.9430    3.4539 H         1 UNK         0.0815 
    109 H109       26.2294   27.3128    3.1554 H         1 UNK         0.0815 
    110 H110       27.6586   28.3241    4.1700 H         1 UNK         0.2987 
    111 H111       30.0604   28.3828    5.7524 H         1 UNK         0.0949 
    112 H112       28.3871   28.8434    7.5659 H         1 UNK         0.0806 
    113 H113       29.2992   30.2976    7.1974 H         1 UNK         0.0806 
    114 H114       27.6575   30.1185    6.5904 H         1 UNK         0.0806 
    115 H115       31.3553   30.1599    5.1380 H         1 UNK         0.3010 
    116 H116       30.4808   32.3215    3.5180 H         1 UNK         0.0829 
    117 H117       31.7732   31.7161    1.4575 H         1 UNK         0.0813 
    118 H118       32.2097   30.1604    2.1486 H         1 UNK         0.0813 
    119 H119       30.5367   30.5049    1.7229 H         1 UNK         0.0813 
    120 H120       32.5649   33.5516    2.8453 H         1 UNK         0.3038 
    121 H121       34.2350   34.0130    5.0571 H         1 UNK         0.0769 
    122 H122       34.6711   34.7291    2.1046 H         1 UNK         0.0811 
    123 H123       35.5286   35.4458    3.4616 H         1 UNK         0.0811 
    124 H124       33.8011   35.7019    3.2924 H         1 UNK         0.0811 
    125 H125       34.6186   31.7119    2.4673 H         1 UNK         0.3204 
    126 H126       37.3521   31.0335    2.6773 H         1 UNK         0.0748 
    127 H127       36.6073   28.9022    1.5902 H         1 UNK         0.0771 
    128 H128       34.9287   29.3007    1.9249 H         1 UNK         0.0771 
    129 H129       35.8738   30.2936    0.8126 H         1 UNK         0.0771 
    130 H130       34.7108   30.3459    4.9262 H         1 UNK         0.2980 
    131 H131       36.0924   28.1367    6.2398 H         1 UNK         0.0545 
    132 H132       36.7130   31.5341    6.3360 H         1 UNK         0.3459 
    133 H133       37.4792   31.5196    7.9063 H         1 UNK         0.3459 
    134 H134       33.6949   29.7057    7.2763 H         1 UNK         0.0616 
    135 H135       34.2598   28.1594    7.8439 H         1 UNK         0.0616 
    136 H136       34.8765   27.2476    4.4427 H         1 UNK         0.0634 
    137 H137       34.4036   26.0013    5.5773 H         1 UNK         0.0634 
@<TRIPOS>BOND
     1    1    2 1    
     2    1   72 1    
     3    1   73 1    
     4    1   74 1    
     5    2    3 2    
     6    2    4 am   BACKBONE|DICT|INTERRES
     7    4    5 1    
     8    4   75 1    
     9    5    6 1    
    10    5   35 1    
    11    5   76 1    
    12    6    7 1    
    13    6   77 1    
    14    6   78 1    
    15    7    8 1    
    16    8    9 1    
    17    8   79 1    
    18    8   80 1    
    19    9   10 ar   
    20    9   14 ar   
    21   10   11 ar   
    22   10   81 1    
    23   11   12 ar   
    24   11   71 1    
    25   12   13 ar   
    26   12   82 1    
    27   13   14 ar   
    28   13   15 1    
    29   14   83 1    
    30   15   16 1    
    31   15   84 1    
    32   15   85 1    
    33   16   17 1    
    34   17   18 1    
    35   17   86 1    
    36   17   87 1    
    37   18   19 1    
    38   18   37 1    
    39   18   88 1    
    40   19   20 am   BACKBONE|DICT|INTERRES
    41   19   89 1    
    42   20   21 2    
    43   20   22 1    
    44   22   23 1    
    45   22   24 1    
    46   22   90 1    
    47   23   91 1    
    48   23   92 1    
    49   23   93 1    
    50   24   25 am   BACKBONE|DICT|INTERRES
    51   24   94 1    
    52   25   26 2    
    53   25   27 1    
    54   27   28 1    
    55   27   29 1    
    56   27   95 1    
    57   28   96 1    
    58   28   97 1    
    59   28   98 1    
    60   29   30 am   BACKBONE|DICT|INTERRES
    61   29   99 1    
    62   30   31 2    
    63   30   32 1    
    64   32   33 1    
    65   32   34 1    
    66   32  100 1    
    67   33  101 1    
    68   33  102 1    
    69   33  103 1    
    70   34   35 am   BACKBONE|DICT|INTERRES
    71   34  104 1    
    72   35   36 2    
    73   37   38 2    
    74   37   39 am   BACKBONE|DICT|INTERRES
    75   39   40 1    
    76   39  105 1    
    77   40   41 1    
    78   40   42 1    
    79   40  106 1    
    80   41  107 1    
    81   41  108 1    
    82   41  109 1    
    83   42   43 2    
    84   42   44 am   BACKBONE|DICT|INTERRES
    85   44   45 1    
    86   44  110 1    
    87   45   46 1    
    88   45   47 1    
    89   45  111 1    
    90   46  112 1    
    91   46  113 1    
    92   46  114 1    
    93   47   48 2    
    94   47   49 am   BACKBONE|DICT|INTERRES
    95   49   50 1    
    96   49  115 1    
    97   50   51 1    
    98   50   52 1    
    99   50  116 1    
   100   51  117 1    
   101   51  118 1    
   102   51  119 1    
   103   52   53 2    
   104   52   54 am   BACKBONE|DICT|INTERRES
   105   54   55 1    
   106   54  120 1    
   107   55   56 1    
   108   55   57 1    
   109   55  121 1    
   110   56  122 1    
   111   56  123 1    
   112   56  124 1    
   113   57   58 2    
   114   57   59 am   BACKBONE|DICT|INTERRES
   115   59   60 1    
   116   59  125 1    
   117   60   61 1    
   118   60   62 1    
   119   60  126 1    
   120   61  127 1    
   121   61  128 1    
   122   61  129 1    
   123   62   63 2    
   124   62   64 am   BACKBONE|DICT|INTERRES
   125   64   65 1    
   126   64  130 1    
   127   65   66 1    
   128   65   69 1    
   129   65  131 1    
   130   66   67 am   BACKBONE|DICT|INTERRES
   131   66   68 2    
   132   67  132 1    
   133   67  133 1    
   134   69   70 1    
   135   69  134 1    
   136   69  135 1    
   137   70   71 1    
   138   71  136 1    
   139   71  137 1    
@<TRIPOS>SUBSTRUCTURE
     1 UNK         1 GROUP             0       ****    0 ROOT    
