@<TRIPOS>MOLECULE
3R136
137   139    1
SMALL
USER_CHARGES


@<TRIPOS>ATOM
      1 CA         35.4758   22.1932    1.8376 C.3       0 UNK        -0.1979 
      2 C          34.1769   22.8856    2.2231 C.2       0 UNK         0.4864 
      3 O          34.0124   23.2674    3.3818 O.2       0 UNK        -0.5359 
      4 N          33.2610   23.0423    1.2618 N.am      1 UNK        -0.4318 
      5 CA         31.9934   23.7589    1.4094 C.3       1 UNK         0.0824 
      6 C6         30.7605   22.8476    1.1630 C.3       12 UNK        -0.0944 
      7 S7         30.6606   21.3579    2.2133 S.3       12 UNK        -0.2672 
      8 C8         30.5812   22.0329    3.9051 C.3       12 UNK         0.0333 
      9 C9         29.4959   23.0859    4.0922 C.ar      12 UNK        -0.0807 
     10 C10        29.8457   24.3778    4.4953 C.ar      12 UNK        -0.0894 
     11 C11        28.8626   25.3501    4.6991 C.ar      12 UNK        -0.0804 
     12 C12        27.5191   25.0103    4.5251 C.ar      12 UNK        -0.0824 
     13 C13        27.1519   23.7289    4.1072 C.ar      12 UNK        -0.0762 
     14 C14        28.1473   22.7684    3.8935 C.ar      12 UNK        -0.0782 
     15 C15        25.6814   23.3758    3.9175 C.3       12 UNK         0.0230 
     16 S16        24.9614   24.1551    2.4322 S.3       12 UNK        -0.2608 
     17 C17        24.4466   25.8001    3.0466 C.3       12 UNK        -0.0989 
     18 CA         25.2640   26.9593    2.4150 C.3       5 UNK         0.0716 
     19 N          25.0983   26.9991    0.9545 N.am      5 UNK        -0.4135 
     20 C          25.9379   27.5836    0.0929 C.2       4 UNK         0.5031 
     21 O          26.9331   28.2280    0.4392 O.2       4 UNK        -0.5229 
     22 CA         25.6085   27.4654   -1.3976 C.3       4 UNK         0.0329 
     23 CB         24.6684   28.5955   -1.8487 C.3       4 UNK        -0.2001 
     24 N          26.8772   27.5688   -2.1039 N.am      4 UNK        -0.4303 
     25 C          27.2581   26.8493   -3.1619 C.2       3 UNK         0.5044 
     26 O          26.5000   26.1338   -3.8182 O.2       3 UNK        -0.5152 
     27 CA         28.7519   26.9202   -3.5374 C.3       3 UNK         0.0319 
     28 CB         28.9740   27.9446   -4.6620 C.3       3 UNK        -0.2001 
     29 N          29.6471   27.2351   -2.4128 N.am      3 UNK        -0.4354 
     30 C          29.8043   26.4789   -1.3153 C.2       2 UNK         0.4964 
     31 O          29.1830   25.4329   -1.1110 O.2       2 UNK        -0.5047 
     32 CA         30.8160   26.9930   -0.2722 C.3       2 UNK         0.0288 
     33 CB         30.2611   28.1978    0.5050 C.3       2 UNK        -0.2113 
     34 N          31.1738   25.9458    0.6852 N.am      2 UNK        -0.4145 
     35 C          31.9763   24.9144    0.3955 C.2       1 UNK         0.5006 
     36 O          32.6322   24.8279   -0.6482 O.2       1 UNK        -0.5103 
     37 C          24.9610   28.3305    3.0718 C.2       5 UNK         0.5055 
     38 O          24.0982   28.4261    3.9462 O.2       5 UNK        -0.5220 
     39 N          25.6692   29.3716    2.6195 N.am      6 UNK        -0.4450 
     40 CA         25.5017   30.7734    3.0088 C.3       6 UNK         0.0367 
     41 CB         25.6961   31.6428    1.7536 C.3       6 UNK        -0.1929 
     42 C          26.4655   31.2194    4.1243 C.2       6 UNK         0.5070 
     43 O          26.3959   32.3784    4.5344 O.2       6 UNK        -0.5237 
     44 N          27.3516   30.3187    4.5793 N.am      7 UNK        -0.4739 
     45 CA         28.4148   30.5468    5.5719 C.3       7 UNK         0.0276 
     46 CB         27.8279   30.9001    6.9558 C.3       7 UNK        -0.1927 
     47 C          29.4824   31.5481    5.0859 C.2       7 UNK         0.5013 
     48 O          29.9577   32.3794    5.8629 O.2       7 UNK        -0.5193 
     49 N          29.8396   31.4403    3.7994 N.am      8 UNK        -0.4253 
     50 CA         30.9323   32.1782    3.1643 C.3       8 UNK         0.0242 
     51 CB         30.7397   32.1168    1.6388 C.3       8 UNK        -0.2000 
     52 C          32.3011   31.5974    3.5607 C.2       8 UNK         0.4948 
     53 O          32.3731   30.4740    4.0617 O.2       8 UNK        -0.5275 
     54 N          33.3772   32.3444    3.2728 N.am      9 UNK        -0.4246 
     55 CA         34.7711   31.9698    3.5627 C.3       9 UNK         0.0261 
     56 CB         35.7076   33.0992    3.1040 C.3       9 UNK        -0.1959 
     57 C          35.2191   30.6231    2.9591 C.2       9 UNK         0.5033 
     58 O          36.0854   29.9609    3.5326 O.2       9 UNK        -0.5390 
     59 N          34.5900   30.2171    1.8471 N.am      10 UNK        -0.4215 
     60 CA         34.7622   28.9143    1.1996 C.3       10 UNK         0.0240 
     61 CB         34.0395   28.9283   -0.1563 C.3       10 UNK        -0.1982 
     62 C          34.3253   27.7069    2.0573 C.2       10 UNK         0.4970 
     63 O          34.7636   26.5943    1.7656 O.2       10 UNK        -0.4916 
     64 N          33.5174   27.9306    3.1055 N.am      11 UNK        -0.4279 
     65 CA         33.2326   26.9366    4.1538 C.3       11 UNK         0.1003 
     66 C          34.4458   26.6357    5.0879 C.2       11 UNK         0.5709 
     67 N          35.5345   27.3983    5.0541 N.am      11 UNK        -0.7358 
     68 O          34.3948   25.6921    5.8727 O.2       11 UNK        -0.4999 
     69 C69        31.9923   27.3240    5.0027 C.3       12 UNK        -0.0954 
     70 S70        30.4617   27.5366    4.0312 S.3       12 UNK        -0.2268 
     71 C71        29.2292   26.7633    5.1296 C.3       12 UNK         0.0203 
     72 H72        36.3190   22.8643    1.9993 H         1 UNK         0.0888 
     73 H73        35.6235   21.3047    2.4507 H         1 UNK         0.0888 
     74 H74        35.4808   21.8879    0.7913 H         1 UNK         0.0888 
     75 H75        33.4780   22.7690    0.3131 H         1 UNK         0.3017 
     76 H76        31.9190   24.1960    2.4059 H         1 UNK         0.0873 
     77 H77        29.8358   23.4133    1.2953 H         1 UNK         0.0745 
     78 H78        30.7471   22.5037    0.1266 H         1 UNK         0.0745 
     79 H79        30.3972   21.2115    4.5986 H         1 UNK         0.0705 
     80 H80        31.5606   22.4334    4.1690 H         1 UNK         0.0705 
     81 H81        30.8854   24.6270    4.6547 H         1 UNK         0.1334 
     82 H82        26.7549   25.7480    4.7178 H         1 UNK         0.1417 
     83 H83        27.8767   21.7690    3.5803 H         1 UNK         0.1562 
     84 H84        25.1125   23.6540    4.8057 H         1 UNK         0.0748 
     85 H85        25.5676   22.2951    3.8201 H         1 UNK         0.0748 
     86 H86        24.5222   25.8177    4.1348 H         1 UNK         0.0940 
     87 H87        23.3842   25.9260    2.8292 H         1 UNK         0.0940 
     88 H88        26.3192   26.7608    2.6128 H         1 UNK         0.0703 
     89 H89        24.2927   26.5102    0.5924 H         1 UNK         0.3081 
     90 H90        25.1478   26.4930   -1.5852 H         1 UNK         0.0719 
     91 H91        25.0939   29.5793   -1.6453 H         1 UNK         0.0809 
     92 H92        24.4634   28.5348   -2.9177 H         1 UNK         0.0809 
     93 H93        23.7104   28.5394   -1.3305 H         1 UNK         0.0809 
     94 H94        27.5830   28.0796   -1.5876 H         1 UNK         0.2990 
     95 H95        29.0350   25.9347   -3.9133 H         1 UNK         0.0690 
     96 H96        30.0071   27.9362   -5.0101 H         1 UNK         0.0788 
     97 H97        28.7350   28.9583   -4.3378 H         1 UNK         0.0788 
     98 H98        28.3428   27.7212   -5.5235 H         1 UNK         0.0788 
     99 H99        30.1900   28.0826   -2.4989 H         1 UNK         0.2993 
    100 H100       31.7154   27.2987   -0.8088 H         1 UNK         0.0949 
    101 H101       29.3931   27.9204    1.1026 H         1 UNK         0.0767 
    102 H102       31.0079   28.6042    1.1868 H         1 UNK         0.0767 
    103 H103       29.9564   29.0043   -0.1628 H         1 UNK         0.0767 
    104 H104       30.6395   25.9286    1.5421 H         1 UNK         0.3013 
    105 H105       26.3304   29.1792    1.8675 H         1 UNK         0.3121 
    106 H106       24.4860   30.9298    3.3783 H         1 UNK         0.0774 
    107 H107       26.7045   31.5468    1.3486 H         1 UNK         0.0815 
    108 H108       25.5326   32.6983    1.9758 H         1 UNK         0.0815 
    109 H109       24.9923   31.3674    0.9678 H         1 UNK         0.0815 
    110 H110       27.3207   29.3979    4.1663 H         1 UNK         0.2987 
    111 H111       28.9439   29.6015    5.6867 H         1 UNK         0.0949 
    112 H112       27.0918   30.1623    7.2748 H         1 UNK         0.0806 
    113 H113       28.6104   30.9246    7.7152 H         1 UNK         0.0806 
    114 H114       27.3467   31.8783    6.9579 H         1 UNK         0.0806 
    115 H115       29.4223   30.7004    3.2556 H         1 UNK         0.3010 
    116 H116       30.8887   33.2200    3.4891 H         1 UNK         0.0829 
    117 H117       31.4933   32.7093    1.1189 H         1 UNK         0.0813 
    118 H118       30.8110   31.0960    1.2626 H         1 UNK         0.0813 
    119 H119       29.7664   32.5122    1.3469 H         1 UNK         0.0813 
    120 H120       33.2360   33.2511    2.8501 H         1 UNK         0.3038 
    121 H121       34.8578   31.8745    4.6471 H         1 UNK         0.0769 
    122 H122       35.6383   33.2705    2.0290 H         1 UNK         0.0811 
    123 H123       36.7480   32.8592    3.3290 H         1 UNK         0.0811 
    124 H124       35.4785   34.0370    3.6105 H         1 UNK         0.0811 
    125 H125       33.8942   30.8317    1.4519 H         1 UNK         0.3204 
    126 H126       35.8295   28.7851    1.0081 H         1 UNK         0.0748 
    127 H127       34.0963   27.9533   -0.6430 H         1 UNK         0.0771 
    128 H128       32.9869   29.1867   -0.0492 H         1 UNK         0.0771 
    129 H129       34.4912   29.6519   -0.8351 H         1 UNK         0.0771 
    130 H130       33.1814   28.8698    3.2994 H         1 UNK         0.2980 
    131 H131       33.0029   25.9949    3.6533 H         1 UNK         0.0545 
    132 H132       35.5997   28.2005    4.4376 H         1 UNK         0.3459 
    133 H133       36.3008   27.1809    5.6704 H         1 UNK         0.3459 
    134 H134       32.1776   28.2526    5.5449 H         1 UNK         0.0616 
    135 H135       31.8180   26.5639    5.7659 H         1 UNK         0.0616 
    136 H136       29.5783   26.7547    6.1626 H         1 UNK         0.0634 
    137 H137       28.3397   27.3935    5.1202 H         1 UNK         0.0634 
@<TRIPOS>BOND
     1    1    2 1    
     2    1   72 1    
     3    1   73 1    
     4    1   74 1    
     5    2    3 2    
     6    2    4 am   BACKBONE|DICT|INTERRES
     7    4    5 1    
     8    4   75 1    
     9    5    6 1    
    10    5   35 1    
    11    5   76 1    
    12    6    7 1    
    13    6   77 1    
    14    6   78 1    
    15    7    8 1    
    16    8    9 1    
    17    8   79 1    
    18    8   80 1    
    19    9   10 ar   
    20    9   14 ar   
    21   10   11 ar   
    22   10   81 1    
    23   11   12 ar   
    24   11   71 1    
    25   12   13 ar   
    26   12   82 1    
    27   13   14 ar   
    28   13   15 1    
    29   14   83 1    
    30   15   16 1    
    31   15   84 1    
    32   15   85 1    
    33   16   17 1    
    34   17   18 1    
    35   17   86 1    
    36   17   87 1    
    37   18   19 1    
    38   18   37 1    
    39   18   88 1    
    40   19   20 am   BACKBONE|DICT|INTERRES
    41   19   89 1    
    42   20   21 2    
    43   20   22 1    
    44   22   23 1    
    45   22   24 1    
    46   22   90 1    
    47   23   91 1    
    48   23   92 1    
    49   23   93 1    
    50   24   25 am   BACKBONE|DICT|INTERRES
    51   24   94 1    
    52   25   26 2    
    53   25   27 1    
    54   27   28 1    
    55   27   29 1    
    56   27   95 1    
    57   28   96 1    
    58   28   97 1    
    59   28   98 1    
    60   29   30 am   BACKBONE|DICT|INTERRES
    61   29   99 1    
    62   30   31 2    
    63   30   32 1    
    64   32   33 1    
    65   32   34 1    
    66   32  100 1    
    67   33  101 1    
    68   33  102 1    
    69   33  103 1    
    70   34   35 am   BACKBONE|DICT|INTERRES
    71   34  104 1    
    72   35   36 2    
    73   37   38 2    
    74   37   39 am   BACKBONE|DICT|INTERRES
    75   39   40 1    
    76   39  105 1    
    77   40   41 1    
    78   40   42 1    
    79   40  106 1    
    80   41  107 1    
    81   41  108 1    
    82   41  109 1    
    83   42   43 2    
    84   42   44 am   BACKBONE|DICT|INTERRES
    85   44   45 1    
    86   44  110 1    
    87   45   46 1    
    88   45   47 1    
    89   45  111 1    
    90   46  112 1    
    91   46  113 1    
    92   46  114 1    
    93   47   48 2    
    94   47   49 am   BACKBONE|DICT|INTERRES
    95   49   50 1    
    96   49  115 1    
    97   50   51 1    
    98   50   52 1    
    99   50  116 1    
   100   51  117 1    
   101   51  118 1    
   102   51  119 1    
   103   52   53 2    
   104   52   54 am   BACKBONE|DICT|INTERRES
   105   54   55 1    
   106   54  120 1    
   107   55   56 1    
   108   55   57 1    
   109   55  121 1    
   110   56  122 1    
   111   56  123 1    
   112   56  124 1    
   113   57   58 2    
   114   57   59 am   BACKBONE|DICT|INTERRES
   115   59   60 1    
   116   59  125 1    
   117   60   61 1    
   118   60   62 1    
   119   60  126 1    
   120   61  127 1    
   121   61  128 1    
   122   61  129 1    
   123   62   63 2    
   124   62   64 am   BACKBONE|DICT|INTERRES
   125   64   65 1    
   126   64  130 1    
   127   65   66 1    
   128   65   69 1    
   129   65  131 1    
   130   66   67 am   BACKBONE|DICT|INTERRES
   131   66   68 2    
   132   67  132 1    
   133   67  133 1    
   134   69   70 1    
   135   69  134 1    
   136   69  135 1    
   137   70   71 1    
   138   71  136 1    
   139   71  137 1    
@<TRIPOS>SUBSTRUCTURE
     1 UNK         1 GROUP             0       ****    0 ROOT    
