@<TRIPOS>MOLECULE
3R136
137   139    1
SMALL
USER_CHARGES


@<TRIPOS>ATOM
      1 CA         28.8807   22.2931   -2.6837 C.3       0 UNK        -0.1979 
      2 C          28.9123   22.8999   -1.2893 C.2       0 UNK         0.4864 
      3 O          28.4983   24.0464   -1.1181 O.2       0 UNK        -0.5359 
      4 N          29.4092   22.1439   -0.3016 N.am      1 UNK        -0.4318 
      5 CA         29.4796   22.5345    1.1095 C.3       1 UNK         0.0824 
      6 C6         30.3376   21.5449    1.9414 C.3       12 UNK        -0.0944 
      7 S7         32.0588   21.4219    1.3475 S.3       12 UNK        -0.2672 
      8 C8         32.9415   22.4593    2.5570 C.3       12 UNK         0.0333 
      9 C9         32.4884   23.9092    2.4825 C.ar      12 UNK        -0.0807 
     10 C10        31.6816   24.4516    3.4867 C.ar      12 UNK        -0.0894 
     11 C11        31.2372   25.7735    3.4033 C.ar      12 UNK        -0.0804 
     12 C12        31.6132   26.5524    2.3024 C.ar      12 UNK        -0.0824 
     13 C13        32.4169   26.0220    1.2875 C.ar      12 UNK        -0.0762 
     14 C14        32.8585   24.7006    1.3922 C.ar      12 UNK        -0.0782 
     15 C15        32.8315   26.8526    0.0751 C.3       12 UNK         0.0230 
     16 S16        31.5532   28.0072   -0.5333 S.3       12 UNK        -0.2608 
     17 C17        30.2026   26.8697   -0.9936 C.3       12 UNK        -0.0989 
     18 CA         28.8119   27.5002   -0.7370 C.3       5 UNK         0.0716 
     19 N          27.7520   26.7755   -1.4332 N.am      5 UNK        -0.4135 
     20 C          26.6486   27.3535   -1.9267 C.2       4 UNK         0.5031 
     21 O          26.4711   28.5725   -1.9532 O.2       4 UNK        -0.5229 
     22 CA         25.5397   26.4263   -2.4467 C.3       4 UNK         0.0329 
     23 CB         26.0662   25.3161   -3.3737 C.3       4 UNK        -0.2001 
     24 N          24.8143   25.8379   -1.3228 N.am      4 UNK        -0.4303 
     25 C          23.8558   26.4484   -0.6147 C.2       3 UNK         0.5044 
     26 O          23.3956   27.5552   -0.8962 O.2       3 UNK        -0.5152 
     27 CA         23.3171   25.7119    0.6281 C.3       3 UNK         0.0319 
     28 CB         22.3983   24.5372    0.2363 C.3       3 UNK        -0.2001 
     29 N          24.3589   25.3008    1.5827 N.am      3 UNK        -0.4354 
     30 C          25.3425   24.4066    1.4092 C.2       2 UNK         0.4964 
     31 O          25.4691   23.7233    0.3907 O.2       2 UNK        -0.5047 
     32 CA         26.3485   24.2930    2.5686 C.3       2 UNK         0.0288 
     33 CB         25.8056   23.4256    3.7229 C.3       2 UNK        -0.2113 
     34 N          27.6734   23.8576    2.1111 N.am      2 UNK        -0.4145 
     35 C          28.0601   22.6403    1.7008 C.2       1 UNK         0.5006 
     36 O          27.3690   21.6199    1.7699 O.2       1 UNK        -0.5103 
     37 C          28.4320   27.5275    0.7526 C.2       5 UNK         0.5055 
     38 O          28.4853   26.4863    1.4095 O.2       5 UNK        -0.5220 
     39 N          28.0037   28.6967    1.2414 N.am      6 UNK        -0.4450 
     40 CA         27.5091   28.8898    2.6074 C.3       6 UNK         0.0367 
     41 CB         25.9763   28.7353    2.6154 C.3       6 UNK        -0.1929 
     42 C          27.9591   30.2295    3.2168 C.2       6 UNK         0.5070 
     43 O          27.4179   30.6320    4.2476 O.2       6 UNK        -0.5237 
     44 N          28.9276   30.9088    2.5866 N.am      7 UNK        -0.4739 
     45 CA         29.5371   32.1329    3.1068 C.3       7 UNK         0.0276 
     46 CB         30.1589   32.9251    1.9444 C.3       7 UNK        -0.1927 
     47 C          30.6079   31.7581    4.1375 C.2       7 UNK         0.5013 
     48 O          31.5301   31.0218    3.7866 O.2       7 UNK        -0.5193 
     49 N          30.4956   32.2748    5.3692 N.am      8 UNK        -0.4253 
     50 CA         31.3618   31.9346    6.5089 C.3       8 UNK         0.0242 
     51 CB         30.9196   32.7325    7.7458 C.3       8 UNK        -0.2000 
     52 C          32.8694   32.1245    6.2578 C.2       8 UNK         0.4948 
     53 O          33.6701   31.3286    6.7496 O.2       8 UNK        -0.5275 
     54 N          33.2228   33.1405    5.4582 N.am      9 UNK        -0.4246 
     55 CA         34.5888   33.4083    5.0013 C.3       9 UNK         0.0261 
     56 CB         34.6354   34.7940    4.3369 C.3       9 UNK        -0.1959 
     57 C          35.1457   32.3352    4.0451 C.2       9 UNK         0.5033 
     58 O          36.3654   32.1761    3.9779 O.2       9 UNK        -0.5390 
     59 N          34.2621   31.6270    3.3277 N.am      10 UNK        -0.4215 
     60 CA         34.6080   30.5049    2.4568 C.3       10 UNK         0.0240 
     61 CB         33.6530   30.4746    1.2526 C.3       10 UNK        -0.1982 
     62 C          34.5726   29.1763    3.2293 C.2       10 UNK         0.4970 
     63 O          35.4219   28.3221    2.9730 O.2       10 UNK        -0.4916 
     64 N          33.6209   29.0304    4.1651 N.am      11 UNK        -0.4279 
     65 CA         33.5294   27.8840    5.0851 C.3       11 UNK         0.1003 
     66 C          34.7526   27.7617    6.0352 C.2       11 UNK         0.5709 
     67 N          35.2323   28.8578    6.6115 N.am      11 UNK        -0.7358 
     68 O          35.2671   26.6671    6.2510 O.2       11 UNK        -0.4999 
     69 C69        32.2180   27.8666    5.9180 C.3       12 UNK        -0.0954 
     70 S70        30.6852   28.0505    4.9493 S.3       12 UNK        -0.2268 
     71 C71        30.3143   26.3285    4.4838 C.3       12 UNK         0.0203 
     72 H72        27.8506   22.1964   -3.0255 H         1 UNK         0.0888 
     73 H73        29.3425   21.3063   -2.7100 H         1 UNK         0.0888 
     74 H74        29.4137   22.9361   -3.3835 H         1 UNK         0.0888 
     75 H75        29.7321   21.2094   -0.5048 H         1 UNK         0.3017 
     76 H76        29.9489   23.5201    1.1549 H         1 UNK         0.0873 
     77 H77        29.9047   20.5431    1.9089 H         1 UNK         0.0745 
     78 H78        30.3422   21.8316    2.9946 H         1 UNK         0.0745 
     79 H79        32.7955   22.0535    3.5594 H         1 UNK         0.0705 
     80 H80        34.0126   22.4040    2.3574 H         1 UNK         0.0705 
     81 H81        31.3856   23.8381    4.3266 H         1 UNK         0.1334 
     82 H82        31.2658   27.5732    2.2309 H         1 UNK         0.1417 
     83 H83        33.4787   24.2752    0.6148 H         1 UNK         0.1562 
     84 H84        33.1158   26.2000   -0.7519 H         1 UNK         0.0748 
     85 H85        33.7245   27.4189    0.3394 H         1 UNK         0.0748 
     86 H86        30.3062   25.9164   -0.4718 H         1 UNK         0.0940 
     87 H87        30.3176   26.6411   -2.0542 H         1 UNK         0.0940 
     88 H88        28.8455   28.5252   -1.1136 H         1 UNK         0.0703 
     89 H89        27.8250   25.7594   -1.3890 H         1 UNK         0.3081 
     90 H90        24.8502   27.0390   -3.0318 H         1 UNK         0.0719 
     91 H91        26.6389   24.5636   -2.8345 H         1 UNK         0.0809 
     92 H92        25.2431   24.8030   -3.8714 H         1 UNK         0.0809 
     93 H93        26.7094   25.7260   -4.1536 H         1 UNK         0.0809 
     94 H94        25.1503   24.9459   -0.9648 H         1 UNK         0.2990 
     95 H95        22.7000   26.4313    1.1691 H         1 UNK         0.0690 
     96 H96        21.9620   24.0659    1.1170 H         1 UNK         0.0788 
     97 H97        22.9273   23.7681   -0.3268 H         1 UNK         0.0788 
     98 H98        21.5736   24.8828   -0.3883 H         1 UNK         0.0788 
     99 H99        24.3411   25.8047    2.4586 H         1 UNK         0.2993 
    100 H100       26.5073   25.3001    2.9579 H         1 UNK         0.0949 
    101 H101       24.9207   23.8813    4.1684 H         1 UNK         0.0767 
    102 H102       25.5152   22.4301    3.3862 H         1 UNK         0.0767 
    103 H103       26.5450   23.3114    4.5157 H         1 UNK         0.0767 
    104 H104       28.2922   24.6405    1.9077 H         1 UNK         0.3013 
    105 H105       27.9364   29.4938    0.6227 H         1 UNK         0.3121 
    106 H106       27.9309   28.1220    3.2585 H         1 UNK         0.0774 
    107 H107       25.6745   27.7737    2.2032 H         1 UNK         0.0815 
    108 H108       25.4923   29.5159    2.0276 H         1 UNK         0.0815 
    109 H109       25.5783   28.7925    3.6293 H         1 UNK         0.0815 
    110 H110       29.3953   30.4731    1.8058 H         1 UNK         0.2987 
    111 H111       28.7718   32.7533    3.5788 H         1 UNK         0.0949 
    112 H112       30.9320   32.3533    1.4288 H         1 UNK         0.0806 
    113 H113       29.4048   33.2059    1.2091 H         1 UNK         0.0806 
    114 H114       30.6201   33.8464    2.3026 H         1 UNK         0.0806 
    115 H115       29.7076   32.8741    5.5697 H         1 UNK         0.3010 
    116 H116       31.2052   30.8746    6.7173 H         1 UNK         0.0829 
    117 H117       29.8856   32.5127    8.0121 H         1 UNK         0.0813 
    118 H118       31.5340   32.4819    8.6119 H         1 UNK         0.0813 
    119 H119       31.0053   33.8080    7.5856 H         1 UNK         0.0813 
    120 H120       32.4950   33.7440    5.1038 H         1 UNK         0.3038 
    121 H121       35.2368   33.4281    5.8803 H         1 UNK         0.0769 
    122 H122       33.9909   34.8432    3.4583 H         1 UNK         0.0811 
    123 H123       35.6482   35.0363    4.0115 H         1 UNK         0.0811 
    124 H124       34.3240   35.5773    5.0282 H         1 UNK         0.0811 
    125 H125       33.2691   31.7626    3.4927 H         1 UNK         0.3204 
    126 H126       35.6207   30.6456    2.0729 H         1 UNK         0.0748 
    127 H127       33.6063   31.4439    0.7563 H         1 UNK         0.0771 
    128 H128       33.9928   29.7521    0.5112 H         1 UNK         0.0771 
    129 H129       32.6385   30.1953    1.5392 H         1 UNK         0.0771 
    130 H130       32.9043   29.7430    4.2578 H         1 UNK         0.2980 
    131 H131       33.5329   26.9879    4.4630 H         1 UNK         0.0545 
    132 H132       36.0266   28.7855    7.2262 H         1 UNK         0.3459 
    133 H133       34.7562   29.7490    6.5025 H         1 UNK         0.3459 
    134 H134       32.1506   26.9442    6.4977 H         1 UNK         0.0616 
    135 H135       32.2309   28.6770    6.6485 H         1 UNK         0.0616 
    136 H136       29.2905   26.2823    4.1118 H         1 UNK         0.0634 
    137 H137       30.3439   25.7069    5.3798 H         1 UNK         0.0634 
@<TRIPOS>BOND
     1    1    2 1    
     2    1   72 1    
     3    1   73 1    
     4    1   74 1    
     5    2    3 2    
     6    2    4 am   BACKBONE|DICT|INTERRES
     7    4    5 1    
     8    4   75 1    
     9    5    6 1    
    10    5   35 1    
    11    5   76 1    
    12    6    7 1    
    13    6   77 1    
    14    6   78 1    
    15    7    8 1    
    16    8    9 1    
    17    8   79 1    
    18    8   80 1    
    19    9   10 ar   
    20    9   14 ar   
    21   10   11 ar   
    22   10   81 1    
    23   11   12 ar   
    24   11   71 1    
    25   12   13 ar   
    26   12   82 1    
    27   13   14 ar   
    28   13   15 1    
    29   14   83 1    
    30   15   16 1    
    31   15   84 1    
    32   15   85 1    
    33   16   17 1    
    34   17   18 1    
    35   17   86 1    
    36   17   87 1    
    37   18   19 1    
    38   18   37 1    
    39   18   88 1    
    40   19   20 am   BACKBONE|DICT|INTERRES
    41   19   89 1    
    42   20   21 2    
    43   20   22 1    
    44   22   23 1    
    45   22   24 1    
    46   22   90 1    
    47   23   91 1    
    48   23   92 1    
    49   23   93 1    
    50   24   25 am   BACKBONE|DICT|INTERRES
    51   24   94 1    
    52   25   26 2    
    53   25   27 1    
    54   27   28 1    
    55   27   29 1    
    56   27   95 1    
    57   28   96 1    
    58   28   97 1    
    59   28   98 1    
    60   29   30 am   BACKBONE|DICT|INTERRES
    61   29   99 1    
    62   30   31 2    
    63   30   32 1    
    64   32   33 1    
    65   32   34 1    
    66   32  100 1    
    67   33  101 1    
    68   33  102 1    
    69   33  103 1    
    70   34   35 am   BACKBONE|DICT|INTERRES
    71   34  104 1    
    72   35   36 2    
    73   37   38 2    
    74   37   39 am   BACKBONE|DICT|INTERRES
    75   39   40 1    
    76   39  105 1    
    77   40   41 1    
    78   40   42 1    
    79   40  106 1    
    80   41  107 1    
    81   41  108 1    
    82   41  109 1    
    83   42   43 2    
    84   42   44 am   BACKBONE|DICT|INTERRES
    85   44   45 1    
    86   44  110 1    
    87   45   46 1    
    88   45   47 1    
    89   45  111 1    
    90   46  112 1    
    91   46  113 1    
    92   46  114 1    
    93   47   48 2    
    94   47   49 am   BACKBONE|DICT|INTERRES
    95   49   50 1    
    96   49  115 1    
    97   50   51 1    
    98   50   52 1    
    99   50  116 1    
   100   51  117 1    
   101   51  118 1    
   102   51  119 1    
   103   52   53 2    
   104   52   54 am   BACKBONE|DICT|INTERRES
   105   54   55 1    
   106   54  120 1    
   107   55   56 1    
   108   55   57 1    
   109   55  121 1    
   110   56  122 1    
   111   56  123 1    
   112   56  124 1    
   113   57   58 2    
   114   57   59 am   BACKBONE|DICT|INTERRES
   115   59   60 1    
   116   59  125 1    
   117   60   61 1    
   118   60   62 1    
   119   60  126 1    
   120   61  127 1    
   121   61  128 1    
   122   61  129 1    
   123   62   63 2    
   124   62   64 am   BACKBONE|DICT|INTERRES
   125   64   65 1    
   126   64  130 1    
   127   65   66 1    
   128   65   69 1    
   129   65  131 1    
   130   66   67 am   BACKBONE|DICT|INTERRES
   131   66   68 2    
   132   67  132 1    
   133   67  133 1    
   134   69   70 1    
   135   69  134 1    
   136   69  135 1    
   137   70   71 1    
   138   71  136 1    
   139   71  137 1    
@<TRIPOS>SUBSTRUCTURE
     1 UNK         1 GROUP             0       ****    0 ROOT    
