@<TRIPOS>MOLECULE
3R136
137   139    1
SMALL
USER_CHARGES


@<TRIPOS>ATOM
      1 CA         30.9866   18.7974   -0.8686 C.3       0 UNK        -0.1979 
      2 C          30.8898   20.2876   -0.5771 C.2       0 UNK         0.4864 
      3 O          31.6222   21.0760   -1.1763 O.2       0 UNK        -0.5359 
      4 N          29.9934   20.6771    0.3397 N.am      1 UNK        -0.4318 
      5 CA         29.7651   22.0665    0.7575 C.3       1 UNK         0.0824 
      6 C6         28.9171   22.1421    2.0507 C.3       12 UNK        -0.0944 
      7 S7         29.7663   21.4145    3.4901 S.3       12 UNK        -0.2672 
      8 C8         29.2980   22.5827    4.8202 C.3       12 UNK         0.0333 
      9 C9         29.9312   23.9785    4.7686 C.ar      12 UNK        -0.0807 
     10 C10        30.9329   24.3326    3.8556 C.ar      12 UNK        -0.0894 
     11 C11        31.4951   25.6119    3.8700 C.ar      12 UNK        -0.0804 
     12 C12        31.0454   26.5546    4.7999 C.ar      12 UNK        -0.0824 
     13 C13        30.0511   26.2208    5.7241 C.ar      12 UNK        -0.0762 
     14 C14        29.5076   24.9302    5.7032 C.ar      12 UNK        -0.0782 
     15 C15        29.6228   27.2320    6.7858 C.3       12 UNK         0.0230 
     16 S16        27.8103   27.3566    6.9759 S.3       12 UNK        -0.2608 
     17 C17        27.3735   28.8792    6.0623 C.3       12 UNK        -0.0989 
     18 CA         27.8723   28.9526    4.5971 C.3       5 UNK         0.0716 
     19 N          27.6297   27.7048    3.8679 N.am      5 UNK        -0.4135 
     20 C          28.0577   27.4167    2.6325 C.2       4 UNK         0.5031 
     21 O          28.6257   28.2295    1.8999 O.2       4 UNK        -0.5229 
     22 CA         27.7904   25.9896    2.1214 C.3       4 UNK         0.0329 
     23 CB         26.7758   25.1877    2.9734 C.3       4 UNK        -0.2001 
     24 N          27.3898   25.9794    0.7130 N.am      4 UNK        -0.4303 
     25 C          26.3130   26.5729    0.1749 C.2       3 UNK         0.5044 
     26 O          25.4945   27.2263    0.8239 O.2       3 UNK        -0.5152 
     27 CA         26.0992   26.4140   -1.3441 C.3       3 UNK         0.0319 
     28 CB         26.4981   27.7043   -2.0780 C.3       3 UNK        -0.2001 
     29 N          26.8292   25.2849   -1.9304 N.am      3 UNK        -0.4354 
     30 C          26.5492   23.9919   -1.7135 C.2       2 UNK         0.4964 
     31 O          25.5838   23.6011   -1.0560 O.2       2 UNK        -0.5047 
     32 CA         27.5260   22.9493   -2.2924 C.3       2 UNK         0.0288 
     33 CB         28.4491   23.4928   -3.4083 C.3       2 UNK        -0.2113 
     34 N          28.3134   22.3170   -1.2255 N.am      2 UNK        -0.4145 
     35 C          29.1207   22.9335   -0.3451 C.2       1 UNK         0.5006 
     36 O          29.3540   24.1435   -0.3607 O.2       1 UNK        -0.5103 
     37 C          27.3103   30.2146    3.9024 C.2       5 UNK         0.5055 
     38 O          27.7367   31.3210    4.2359 O.2       5 UNK        -0.5220 
     39 N          26.3746   30.0394    2.9554 N.am      6 UNK        -0.4450 
     40 CA         25.8311   31.1032    2.1104 C.3       6 UNK         0.0367 
     41 CB         24.5799   30.5896    1.3805 C.3       6 UNK        -0.1929 
     42 C          26.8518   31.6606    1.1008 C.2       6 UNK         0.5070 
     43 O          26.6938   32.8062    0.6777 O.2       6 UNK        -0.5237 
     44 N          27.8737   30.8699    0.7332 N.am      7 UNK        -0.4739 
     45 CA         28.9994   31.3318   -0.0829 C.3       7 UNK         0.0276 
     46 CB         29.7497   30.1312   -0.6850 C.3       7 UNK        -0.1927 
     47 C          29.9429   32.2152    0.7465 C.2       7 UNK         0.5013 
     48 O          30.2195   33.3493    0.3539 O.2       7 UNK        -0.5193 
     49 N          30.3832   31.6811    1.8903 N.am      8 UNK        -0.4253 
     50 CA         31.2273   32.3140    2.8989 C.3       8 UNK         0.0242 
     51 CB         32.6224   32.6377    2.3268 C.3       8 UNK        -0.2000 
     52 C          31.3433   31.3432    4.0795 C.2       8 UNK         0.4948 
     53 O          31.1227   30.1439    3.8999 O.2       8 UNK        -0.5275 
     54 N          31.7202   31.8629    5.2571 N.am      9 UNK        -0.4246 
     55 CA         31.9362   31.0762    6.4807 C.3       9 UNK         0.0261 
     56 CB         32.2023   32.0228    7.6621 C.3       9 UNK        -0.1959 
     57 C          33.0679   30.0383    6.3509 C.2       9 UNK         0.5033 
     58 O          32.9734   28.9606    6.9390 O.2       9 UNK        -0.5390 
     59 N          34.0879   30.3740    5.5541 N.am      10 UNK        -0.4215 
     60 CA         35.1007   29.4653    5.0352 C.3       10 UNK         0.0240 
     61 CB         36.4698   29.7958    5.6534 C.3       10 UNK        -0.1982 
     62 C          35.0982   29.6754    3.5187 C.2       10 UNK         0.4970 
     63 O          35.2997   30.8059    3.0712 O.2       10 UNK        -0.4916 
     64 N          34.8229   28.6061    2.7671 N.am      11 UNK        -0.4279 
     65 CA         34.5945   28.6398    1.3123 C.3       11 UNK         0.1003 
     66 C          35.8766   28.8353    0.4505 C.2       11 UNK         0.5709 
     67 N          37.0776   28.7488    1.0103 N.am      11 UNK        -0.7358 
     68 O          35.7779   29.0773   -0.7501 O.2       11 UNK        -0.4999 
     69 C69        33.7829   27.4054    0.8323 C.3       12 UNK        -0.0954 
     70 S70        32.1853   27.2073    1.6960 S.3       12 UNK        -0.2268 
     71 C71        32.6395   25.9480    2.9269 C.3       12 UNK         0.0203 
     72 H72        30.2873   18.2173   -0.2667 H         1 UNK         0.0888 
     73 H73        30.7699   18.6056   -1.9192 H         1 UNK         0.0888 
     74 H74        31.9936   18.4387   -0.6571 H         1 UNK         0.0888 
     75 H75        29.4428   19.9807    0.8224 H         1 UNK         0.3017 
     76 H76        30.7412   22.5111    0.9645 H         1 UNK         0.0873 
     77 H77        28.6890   23.1799    2.2868 H         1 UNK         0.0745 
     78 H78        27.9554   21.6424    1.9198 H         1 UNK         0.0745 
     79 H79        29.5662   22.1244    5.7731 H         1 UNK         0.0705 
     80 H80        28.2113   22.6810    4.8236 H         1 UNK         0.0705 
     81 H81        31.3023   23.6115    3.1419 H         1 UNK         0.1334 
     82 H82        31.4892   27.5418    4.8157 H         1 UNK         0.1417 
     83 H83        28.7536   24.6606    6.4307 H         1 UNK         0.1562 
     84 H84        30.0416   28.2184    6.5824 H         1 UNK         0.0748 
     85 H85        30.0466   26.9178    7.7404 H         1 UNK         0.0748 
     86 H86        27.7558   29.7311    6.6287 H         1 UNK         0.0940 
     87 H87        26.2854   28.9659    6.0949 H         1 UNK         0.0940 
     88 H88        28.9541   29.0759    4.6223 H         1 UNK         0.0703 
     89 H89        27.1781   26.9757    4.4000 H         1 UNK         0.3081 
     90 H90        28.7533   25.4805    2.1649 H         1 UNK         0.0719 
     91 H91        27.1543   25.0025    3.9785 H         1 UNK         0.0809 
     92 H92        26.5707   24.2141    2.5287 H         1 UNK         0.0809 
     93 H93        25.8198   25.7047    3.0664 H         1 UNK         0.0809 
     94 H94        28.0274   25.4850    0.0952 H         1 UNK         0.2990 
     95 H95        25.0317   26.2471   -1.5029 H         1 UNK         0.0690 
     96 H96        26.2368   27.6565   -3.1352 H         1 UNK         0.0788 
     97 H97        27.5693   27.8905   -2.0044 H         1 UNK         0.0788 
     98 H98        25.9861   28.5712   -1.6570 H         1 UNK         0.0788 
     99 H99        27.6575   25.5066   -2.4642 H         1 UNK         0.2993 
    100 H100       26.9065   22.1658   -2.7319 H         1 UNK         0.0949 
    101 H101       27.8684   23.9381   -4.2175 H         1 UNK         0.0767 
    102 H102       29.1485   24.2467   -3.0458 H         1 UNK         0.0767 
    103 H103       29.0396   22.6881   -3.8468 H         1 UNK         0.0767 
    104 H104       28.1704   21.3238   -1.1087 H         1 UNK         0.3013 
    105 H105       26.0942   29.0952    2.7272 H         1 UNK         0.3121 
    106 H106       25.5309   31.9270    2.7616 H         1 UNK         0.0774 
    107 H107       24.1102   31.3895    0.8064 H         1 UNK         0.0815 
    108 H108       24.8209   29.7890    0.6808 H         1 UNK         0.0815 
    109 H109       23.8341   30.2132    2.0807 H         1 UNK         0.0815 
    110 H110       27.9566   29.9415    1.1397 H         1 UNK         0.2987 
    111 H111       28.6117   31.9340   -0.9079 H         1 UNK         0.0949 
    112 H112       29.0974   29.5403   -1.3259 H         1 UNK         0.0806 
    113 H113       30.5883   30.4648   -1.2975 H         1 UNK         0.0806 
    114 H114       30.1524   29.4692    0.0827 H         1 UNK         0.0806 
    115 H115       30.1065   30.7366    2.1378 H         1 UNK         0.3010 
    116 H116       30.7386   33.2285    3.2406 H         1 UNK         0.0829 
    117 H117       32.5764   33.4151    1.5647 H         1 UNK         0.0813 
    118 H118       33.2999   32.9967    3.1023 H         1 UNK         0.0813 
    119 H119       33.0800   31.7574    1.8750 H         1 UNK         0.0813 
    120 H120       31.8753   32.8591    5.3244 H         1 UNK         0.3038 
    121 H121       31.0137   30.5284    6.6842 H         1 UNK         0.0769 
    122 H122       33.0995   32.6234    7.5066 H         1 UNK         0.0811 
    123 H123       32.3431   31.4609    8.5866 H         1 UNK         0.0811 
    124 H124       31.3653   32.7024    7.8234 H         1 UNK         0.0811 
    125 H125       34.0511   31.2703    5.0875 H         1 UNK         0.3204 
    126 H126       34.8440   28.4281    5.2627 H         1 UNK         0.0748 
    127 H127       37.2437   29.1338    5.2631 H         1 UNK         0.0771 
    128 H128       36.7762   30.8208    5.4398 H         1 UNK         0.0771 
    129 H129       36.4518   29.6725    6.7364 H         1 UNK         0.0771 
    130 H130       34.6836   27.7131    3.2124 H         1 UNK         0.2980 
    131 H131       33.9778   29.5182    1.1117 H         1 UNK         0.0545 
    132 H132       37.1703   28.5594    1.9948 H         1 UNK         0.3459 
    133 H133       37.8983   28.8824    0.4410 H         1 UNK         0.3459 
    134 H134       34.3723   26.4930    0.9391 H         1 UNK         0.0616 
    135 H135       33.5583   27.4936   -0.2322 H         1 UNK         0.0616 
    136 H136       33.4840   26.2985    3.5195 H         1 UNK         0.0634 
    137 H137       32.9816   25.0539    2.4031 H         1 UNK         0.0634 
@<TRIPOS>BOND
     1    1    2 1    
     2    1   72 1    
     3    1   73 1    
     4    1   74 1    
     5    2    3 2    
     6    2    4 am   BACKBONE|DICT|INTERRES
     7    4    5 1    
     8    4   75 1    
     9    5    6 1    
    10    5   35 1    
    11    5   76 1    
    12    6    7 1    
    13    6   77 1    
    14    6   78 1    
    15    7    8 1    
    16    8    9 1    
    17    8   79 1    
    18    8   80 1    
    19    9   10 ar   
    20    9   14 ar   
    21   10   11 ar   
    22   10   81 1    
    23   11   12 ar   
    24   11   71 1    
    25   12   13 ar   
    26   12   82 1    
    27   13   14 ar   
    28   13   15 1    
    29   14   83 1    
    30   15   16 1    
    31   15   84 1    
    32   15   85 1    
    33   16   17 1    
    34   17   18 1    
    35   17   86 1    
    36   17   87 1    
    37   18   19 1    
    38   18   37 1    
    39   18   88 1    
    40   19   20 am   BACKBONE|DICT|INTERRES
    41   19   89 1    
    42   20   21 2    
    43   20   22 1    
    44   22   23 1    
    45   22   24 1    
    46   22   90 1    
    47   23   91 1    
    48   23   92 1    
    49   23   93 1    
    50   24   25 am   BACKBONE|DICT|INTERRES
    51   24   94 1    
    52   25   26 2    
    53   25   27 1    
    54   27   28 1    
    55   27   29 1    
    56   27   95 1    
    57   28   96 1    
    58   28   97 1    
    59   28   98 1    
    60   29   30 am   BACKBONE|DICT|INTERRES
    61   29   99 1    
    62   30   31 2    
    63   30   32 1    
    64   32   33 1    
    65   32   34 1    
    66   32  100 1    
    67   33  101 1    
    68   33  102 1    
    69   33  103 1    
    70   34   35 am   BACKBONE|DICT|INTERRES
    71   34  104 1    
    72   35   36 2    
    73   37   38 2    
    74   37   39 am   BACKBONE|DICT|INTERRES
    75   39   40 1    
    76   39  105 1    
    77   40   41 1    
    78   40   42 1    
    79   40  106 1    
    80   41  107 1    
    81   41  108 1    
    82   41  109 1    
    83   42   43 2    
    84   42   44 am   BACKBONE|DICT|INTERRES
    85   44   45 1    
    86   44  110 1    
    87   45   46 1    
    88   45   47 1    
    89   45  111 1    
    90   46  112 1    
    91   46  113 1    
    92   46  114 1    
    93   47   48 2    
    94   47   49 am   BACKBONE|DICT|INTERRES
    95   49   50 1    
    96   49  115 1    
    97   50   51 1    
    98   50   52 1    
    99   50  116 1    
   100   51  117 1    
   101   51  118 1    
   102   51  119 1    
   103   52   53 2    
   104   52   54 am   BACKBONE|DICT|INTERRES
   105   54   55 1    
   106   54  120 1    
   107   55   56 1    
   108   55   57 1    
   109   55  121 1    
   110   56  122 1    
   111   56  123 1    
   112   56  124 1    
   113   57   58 2    
   114   57   59 am   BACKBONE|DICT|INTERRES
   115   59   60 1    
   116   59  125 1    
   117   60   61 1    
   118   60   62 1    
   119   60  126 1    
   120   61  127 1    
   121   61  128 1    
   122   61  129 1    
   123   62   63 2    
   124   62   64 am   BACKBONE|DICT|INTERRES
   125   64   65 1    
   126   64  130 1    
   127   65   66 1    
   128   65   69 1    
   129   65  131 1    
   130   66   67 am   BACKBONE|DICT|INTERRES
   131   66   68 2    
   132   67  132 1    
   133   67  133 1    
   134   69   70 1    
   135   69  134 1    
   136   69  135 1    
   137   70   71 1    
   138   71  136 1    
   139   71  137 1    
@<TRIPOS>SUBSTRUCTURE
     1 UNK         1 GROUP             0       ****    0 ROOT    
