@<TRIPOS>MOLECULE
3R136
137   139    1
SMALL
USER_CHARGES


@<TRIPOS>ATOM
      1 CA         27.8606   21.7041    1.4318 C.3       0 UNK        -0.1979 
      2 C          27.9941   22.6386    0.2397 C.2       0 UNK         0.4864 
      3 O          27.1286   22.6393   -0.6367 O.2       0 UNK        -0.5359 
      4 N          29.0634   23.4451    0.1982 N.am      1 UNK        -0.4318 
      5 CA         29.2951   24.4587   -0.8349 C.3       1 UNK         0.0824 
      6 C6         30.7278   25.0296   -0.7724 C.3       12 UNK        -0.0944 
      7 S7         32.0002   23.8798   -1.4010 S.3       12 UNK        -0.2672 
      8 C8         32.3213   22.7338   -0.0155 C.3       12 UNK         0.0333 
      9 C9         32.4497   23.4120    1.3433 C.ar      12 UNK        -0.0807 
     10 C10        33.2790   24.5252    1.5194 C.ar      12 UNK        -0.0894 
     11 C11        33.3749   25.1504    2.7657 C.ar      12 UNK        -0.0804 
     12 C12        32.6496   24.6414    3.8476 C.ar      12 UNK        -0.0824 
     13 C13        31.8214   23.5267    3.6853 C.ar      12 UNK        -0.0762 
     14 C14        31.7356   22.9106    2.4349 C.ar      12 UNK        -0.0782 
     15 C15        31.0230   22.9750    4.8575 C.3       12 UNK         0.0230 
     16 S16        29.2398   23.3061    4.6811 S.3       12 UNK        -0.2608 
     17 C17        29.1786   25.1207    4.8541 C.3       12 UNK        -0.0989 
     18 CA         28.6781   25.8222    3.5597 C.3       5 UNK         0.0716 
     19 N          27.3086   25.4541    3.1605 N.am      5 UNK        -0.4135 
     20 C          26.1902   25.6881    3.8675 C.2       4 UNK         0.5031 
     21 O          26.1912   26.1082    5.0253 O.2       4 UNK        -0.5229 
     22 CA         24.8288   25.4472    3.1926 C.3       4 UNK         0.0329 
     23 CB         23.9108   26.6791    3.3338 C.3       4 UNK        -0.2001 
     24 N          24.9104   25.0758    1.7756 N.am      4 UNK        -0.4303 
     25 C          24.0242   24.2734    1.1673 C.2       3 UNK         0.5044 
     26 O          23.1371   23.6687    1.7726 O.2       3 UNK        -0.5152 
     27 CA         24.1200   24.0936   -0.3619 C.3       3 UNK         0.0319 
     28 CB         22.7482   24.2661   -1.0488 C.3       3 UNK        -0.2001 
     29 N          25.1473   24.9069   -1.0253 N.am      3 UNK        -0.4354 
     30 C          25.1947   26.2415   -1.1778 C.2       2 UNK         0.4964 
     31 O          24.3320   27.0091   -0.7510 O.2       2 UNK        -0.5047 
     32 CA         26.4280   26.8116   -1.9162 C.3       2 UNK         0.0288 
     33 CB         26.7639   28.2558   -1.4853 C.3       2 UNK        -0.2113 
     34 N          27.6108   25.9409   -1.8253 N.am      2 UNK        -0.4145 
     35 C          28.2446   25.5787   -0.7006 C.2       1 UNK         0.5006 
     36 O          27.9949   26.0504    0.4135 O.2       1 UNK        -0.5103 
     37 C          28.7877   27.3602    3.6326 C.2       5 UNK         0.5055 
     38 O          29.1155   27.9097    4.6851 O.2       5 UNK        -0.5220 
     39 N          28.4401   28.0245    2.5221 N.am      6 UNK        -0.4450 
     40 CA         28.2387   29.4755    2.4605 C.3       6 UNK         0.0367 
     41 CB         26.7348   29.7725    2.6225 C.3       6 UNK        -0.1929 
     42 C          28.8164   30.1134    1.1863 C.2       6 UNK         0.5070 
     43 O          28.4612   31.2497    0.8715 O.2       6 UNK        -0.5237 
     44 N          29.6868   29.3939    0.4634 N.am      7 UNK        -0.4739 
     45 CA         30.3007   29.8706   -0.7835 C.3       7 UNK         0.0276 
     46 CB         30.8737   28.6775   -1.5592 C.3       7 UNK        -0.1927 
     47 C          31.3779   30.9527   -0.5846 C.2       7 UNK         0.5013 
     48 O          31.6761   31.6811   -1.5324 O.2       7 UNK        -0.5193 
     49 N          31.9373   31.0452    0.6255 N.am      8 UNK        -0.4253 
     50 CA         32.9053   32.0535    1.0394 C.3       8 UNK         0.0242 
     51 CB         34.3327   31.5457    0.7670 C.3       8 UNK        -0.2000 
     52 C          32.6970   32.3271    2.5301 C.2       8 UNK         0.4948 
     53 O          32.1964   31.4551    3.2438 O.2       8 UNK        -0.5275 
     54 N          33.1301   33.5088    2.9890 N.am      9 UNK        -0.4246 
     55 CA         33.0391   33.9484    4.3886 C.3       9 UNK         0.0261 
     56 CB         33.4635   35.4233    4.4837 C.3       9 UNK        -0.1959 
     57 C          33.8518   33.0893    5.3775 C.2       9 UNK         0.5033 
     58 O          33.5408   33.0848    6.5692 O.2       9 UNK        -0.5390 
     59 N          34.8673   32.3774    4.8702 N.am      10 UNK        -0.4215 
     60 CA         35.6716   31.4115    5.6178 C.3       10 UNK         0.0240 
     61 CB         36.9653   31.1295    4.8353 C.3       10 UNK        -0.1982 
     62 C          34.9314   30.0937    5.9164 C.2       10 UNK         0.4970 
     63 O          35.3398   29.3875    6.8396 O.2       10 UNK        -0.4916 
     64 N          33.8913   29.7646    5.1372 N.am      11 UNK        -0.4279 
     65 CA         33.0901   28.5462    5.3095 C.3       11 UNK         0.1003 
     66 C          32.1090   28.6604    6.5073 C.2       11 UNK         0.5709 
     67 N          31.8653   27.5652    7.2158 N.am      11 UNK        -0.7358 
     68 O          31.5551   29.7212    6.7902 O.2       11 UNK        -0.4999 
     69 C69        32.3431   28.1506    4.0084 C.3       12 UNK        -0.0954 
     70 S70        33.4347   27.9298    2.5621 S.3       12 UNK        -0.2268 
     71 C71        34.2814   26.3602    2.9415 C.3       12 UNK         0.0203 
     72 H72        28.7290   21.7490    2.0868 H         1 UNK         0.0888 
     73 H73        26.9808   21.9694    2.0178 H         1 UNK         0.0888 
     74 H74        27.7468   20.6755    1.0911 H         1 UNK         0.0888 
     75 H75        29.7364   23.4302    0.9496 H         1 UNK         0.3017 
     76 H76        29.1599   23.9780   -1.8066 H         1 UNK         0.0873 
     77 H77        30.9728   25.3866    0.2287 H         1 UNK         0.0745 
     78 H78        30.8044   25.8996   -1.4217 H         1 UNK         0.0745 
     79 H79        31.5267   21.9864   -0.0017 H         1 UNK         0.0705 
     80 H80        33.2436   22.1895   -0.2223 H         1 UNK         0.0705 
     81 H81        33.8400   24.9140    0.6804 H         1 UNK         0.1334 
     82 H82        32.7309   25.1140    4.8163 H         1 UNK         0.1417 
     83 H83        31.1102   22.0362    2.3189 H         1 UNK         0.1562 
     84 H84        31.3772   23.3879    5.8035 H         1 UNK         0.0748 
     85 H85        31.1762   21.8967    4.9209 H         1 UNK         0.0748 
     86 H86        30.1703   25.4872    5.1222 H         1 UNK         0.0940 
     87 H87        28.5442   25.3644    5.7070 H         1 UNK         0.0940 
     88 H88        29.3368   25.5118    2.7466 H         1 UNK         0.0703 
     89 H89        27.2239   25.1406    2.2041 H         1 UNK         0.3081 
     90 H90        24.3806   24.6239    3.7529 H         1 UNK         0.0719 
     91 H91        23.7931   26.9727    4.3777 H         1 UNK         0.0809 
     92 H92        24.3105   27.5385    2.7943 H         1 UNK         0.0809 
     93 H93        22.9120   26.4773    2.9464 H         1 UNK         0.0809 
     94 H94        25.5812   25.5683    1.2021 H         1 UNK         0.2990 
     95 H95        24.4269   23.0578   -0.5132 H         1 UNK         0.0690 
     96 H96        22.8205   24.1105   -2.1252 H         1 UNK         0.0788 
     97 H97        22.3302   25.2587   -0.8792 H         1 UNK         0.0788 
     98 H98        22.0255   23.5434   -0.6678 H         1 UNK         0.0788 
     99 H99        25.9350   24.3652   -1.3620 H         1 UNK         0.2993 
    100 H100       26.1520   26.8414   -2.9715 H         1 UNK         0.0949 
    101 H101       26.9586   28.3254   -0.4160 H         1 UNK         0.0767 
    102 H102       27.6380   28.6354   -2.0132 H         1 UNK         0.0767 
    103 H103       25.9373   28.9323   -1.7055 H         1 UNK         0.0767 
    104 H104       27.8879   25.5012   -2.6929 H         1 UNK         0.3013 
    105 H105       28.1873   27.4858    1.6962 H         1 UNK         0.3121 
    106 H106       28.7692   29.9572    3.2848 H         1 UNK         0.0774 
    107 H107       26.1519   29.3507    1.8031 H         1 UNK         0.0815 
    108 H108       26.3485   29.3599    3.5548 H         1 UNK         0.0815 
    109 H109       26.5422   30.8458    2.6438 H         1 UNK         0.0815 
    110 H110       29.9566   28.4786    0.7924 H         1 UNK         0.2987 
    111 H111       29.5169   30.3211   -1.3968 H         1 UNK         0.0949 
    112 H112       30.0792   27.9948   -1.8570 H         1 UNK         0.0806 
    113 H113       31.3699   29.0047   -2.4741 H         1 UNK         0.0806 
    114 H114       31.6077   28.1273   -0.9692 H         1 UNK         0.0806 
    115 H115       31.6090   30.4483    1.3744 H         1 UNK         0.3010 
    116 H116       32.7292   32.9804    0.4887 H         1 UNK         0.0829 
    117 H117       34.5470   30.6306    1.3211 H         1 UNK         0.0813 
    118 H118       35.0784   32.2873    1.0556 H         1 UNK         0.0813 
    119 H119       34.4817   31.3351   -0.2922 H         1 UNK         0.0813 
    120 H120       33.5379   34.1645    2.3370 H         1 UNK         0.3038 
    121 H121       31.9915   33.8741    4.6884 H         1 UNK         0.0769 
    122 H122       32.8328   36.0599    3.8629 H         1 UNK         0.0811 
    123 H123       34.4989   35.5672    4.1724 H         1 UNK         0.0811 
    124 H124       33.3782   35.7888    5.5082 H         1 UNK         0.0811 
    125 H125       35.0597   32.4642    3.8835 H         1 UNK         0.3204 
    126 H126       35.9423   31.8594    6.5765 H         1 UNK         0.0748 
    127 H127       36.7596   30.6836    3.8610 H         1 UNK         0.0771 
    128 H128       37.5396   32.0421    4.6741 H         1 UNK         0.0771 
    129 H129       37.6084   30.4372    5.3806 H         1 UNK         0.0771 
    130 H130       33.5478   30.4168    4.4423 H         1 UNK         0.2980 
    131 H131       33.7823   27.7370    5.5461 H         1 UNK         0.0545 
    132 H132       32.3248   26.6930    7.0120 H         1 UNK         0.3459 
    133 H133       31.2201   27.6220    7.9878 H         1 UNK         0.3459 
    134 H134       31.6062   28.9133    3.7526 H         1 UNK         0.0616 
    135 H135       31.7761   27.2326    4.1555 H         1 UNK         0.0616 
    136 H136       35.1411   26.2683    2.2761 H         1 UNK         0.0634 
    137 H137       34.6926   26.3871    3.9505 H         1 UNK         0.0634 
@<TRIPOS>BOND
     1    1    2 1    
     2    1   72 1    
     3    1   73 1    
     4    1   74 1    
     5    2    3 2    
     6    2    4 am   BACKBONE|DICT|INTERRES
     7    4    5 1    
     8    4   75 1    
     9    5    6 1    
    10    5   35 1    
    11    5   76 1    
    12    6    7 1    
    13    6   77 1    
    14    6   78 1    
    15    7    8 1    
    16    8    9 1    
    17    8   79 1    
    18    8   80 1    
    19    9   10 ar   
    20    9   14 ar   
    21   10   11 ar   
    22   10   81 1    
    23   11   12 ar   
    24   11   71 1    
    25   12   13 ar   
    26   12   82 1    
    27   13   14 ar   
    28   13   15 1    
    29   14   83 1    
    30   15   16 1    
    31   15   84 1    
    32   15   85 1    
    33   16   17 1    
    34   17   18 1    
    35   17   86 1    
    36   17   87 1    
    37   18   19 1    
    38   18   37 1    
    39   18   88 1    
    40   19   20 am   BACKBONE|DICT|INTERRES
    41   19   89 1    
    42   20   21 2    
    43   20   22 1    
    44   22   23 1    
    45   22   24 1    
    46   22   90 1    
    47   23   91 1    
    48   23   92 1    
    49   23   93 1    
    50   24   25 am   BACKBONE|DICT|INTERRES
    51   24   94 1    
    52   25   26 2    
    53   25   27 1    
    54   27   28 1    
    55   27   29 1    
    56   27   95 1    
    57   28   96 1    
    58   28   97 1    
    59   28   98 1    
    60   29   30 am   BACKBONE|DICT|INTERRES
    61   29   99 1    
    62   30   31 2    
    63   30   32 1    
    64   32   33 1    
    65   32   34 1    
    66   32  100 1    
    67   33  101 1    
    68   33  102 1    
    69   33  103 1    
    70   34   35 am   BACKBONE|DICT|INTERRES
    71   34  104 1    
    72   35   36 2    
    73   37   38 2    
    74   37   39 am   BACKBONE|DICT|INTERRES
    75   39   40 1    
    76   39  105 1    
    77   40   41 1    
    78   40   42 1    
    79   40  106 1    
    80   41  107 1    
    81   41  108 1    
    82   41  109 1    
    83   42   43 2    
    84   42   44 am   BACKBONE|DICT|INTERRES
    85   44   45 1    
    86   44  110 1    
    87   45   46 1    
    88   45   47 1    
    89   45  111 1    
    90   46  112 1    
    91   46  113 1    
    92   46  114 1    
    93   47   48 2    
    94   47   49 am   BACKBONE|DICT|INTERRES
    95   49   50 1    
    96   49  115 1    
    97   50   51 1    
    98   50   52 1    
    99   50  116 1    
   100   51  117 1    
   101   51  118 1    
   102   51  119 1    
   103   52   53 2    
   104   52   54 am   BACKBONE|DICT|INTERRES
   105   54   55 1    
   106   54  120 1    
   107   55   56 1    
   108   55   57 1    
   109   55  121 1    
   110   56  122 1    
   111   56  123 1    
   112   56  124 1    
   113   57   58 2    
   114   57   59 am   BACKBONE|DICT|INTERRES
   115   59   60 1    
   116   59  125 1    
   117   60   61 1    
   118   60   62 1    
   119   60  126 1    
   120   61  127 1    
   121   61  128 1    
   122   61  129 1    
   123   62   63 2    
   124   62   64 am   BACKBONE|DICT|INTERRES
   125   64   65 1    
   126   64  130 1    
   127   65   66 1    
   128   65   69 1    
   129   65  131 1    
   130   66   67 am   BACKBONE|DICT|INTERRES
   131   66   68 2    
   132   67  132 1    
   133   67  133 1    
   134   69   70 1    
   135   69  134 1    
   136   69  135 1    
   137   70   71 1    
   138   71  136 1    
   139   71  137 1    
@<TRIPOS>SUBSTRUCTURE
     1 UNK         1 GROUP             0       ****    0 ROOT    
