@<TRIPOS>MOLECULE
3R136
137   139    1
SMALL
USER_CHARGES


@<TRIPOS>ATOM
      1 CA         28.3022   18.1622   -0.4497 C.3       0 UNK        -0.1979 
      2 C          28.6687   19.5407   -0.9794 C.2       0 UNK         0.4864 
      3 O          29.3099   19.6423   -2.0261 O.2       0 UNK        -0.5359 
      4 N          28.2687   20.6002   -0.2628 N.am      1 UNK        -0.4318 
      5 CA         28.5386   22.0027   -0.6075 C.3       1 UNK         0.0824 
      6 C6         28.1961   22.9603    0.5612 C.3       12 UNK        -0.0944 
      7 S7         29.1671   22.6164    2.0680 S.3       12 UNK        -0.2672 
      8 C8         30.3969   23.9659    2.0418 C.3       12 UNK         0.0333 
      9 C9         30.6430   24.5724    3.4191 C.ar      12 UNK        -0.0807 
     10 C10        31.9480   24.8102    3.8577 C.ar      12 UNK        -0.0894 
     11 C11        32.1829   25.4330    5.0868 C.ar      12 UNK        -0.0804 
     12 C12        31.0980   25.8364    5.8729 C.ar      12 UNK        -0.0824 
     13 C13        29.7827   25.6097    5.4509 C.ar      12 UNK        -0.0762 
     14 C14        29.5708   24.9515    4.2330 C.ar      12 UNK        -0.0782 
     15 C15        28.6272   26.0603    6.3512 C.3       12 UNK         0.0230 
     16 S16        26.9974   26.2396    5.5325 S.3       12 UNK        -0.2608 
     17 C17        27.1840   27.7964    4.5926 C.3       12 UNK        -0.0989 
     18 CA         27.5833   27.5686    3.1085 C.3       5 UNK         0.0716 
     19 N          26.7029   26.6506    2.3807 N.am      5 UNK        -0.4135 
     20 C          25.4377   26.8676    2.0027 C.2       4 UNK         0.5031 
     21 O          24.8101   27.9077    2.2111 O.2       4 UNK        -0.5229 
     22 CA         24.7769   25.7090    1.2333 C.3       4 UNK         0.0329 
     23 CB         23.3281   25.4830    1.6998 C.3       4 UNK        -0.2001 
     24 N          24.7871   25.8781   -0.2239 N.am      4 UNK        -0.4303 
     25 C          25.8346   26.1860   -1.0024 C.2       3 UNK         0.5044 
     26 O          26.9669   26.4435   -0.5848 O.2       3 UNK        -0.5152 
     27 CA         25.5822   26.0933   -2.5159 C.3       3 UNK         0.0319 
     28 CB         26.4667   27.0545   -3.3280 C.3       3 UNK        -0.2001 
     29 N          25.8706   24.7248   -2.9318 N.am      3 UNK        -0.4354 
     30 C          25.0086   23.7028   -2.8882 C.2       2 UNK         0.4964 
     31 O          23.8116   23.8284   -2.6274 O.2       2 UNK        -0.5047 
     32 CA         25.5903   22.2967   -3.1212 C.3       2 UNK         0.0288 
     33 CB         26.1263   22.1190   -4.5568 C.3       2 UNK        -0.2113 
     34 N          26.5864   21.9237   -2.1045 N.am      2 UNK        -0.4145 
     35 C          27.7955   22.4649   -1.8778 C.2       1 UNK         0.5006 
     36 O          28.3122   23.3252   -2.5935 O.2       1 UNK        -0.5103 
     37 C          27.8709   28.8755    2.3422 C.2       5 UNK         0.5055 
     38 O          28.0889   29.9143    2.9658 O.2       5 UNK        -0.5220 
     39 N          27.9708   28.7979    1.0048 N.am      6 UNK        -0.4450 
     40 CA         28.5052   29.8824    0.1673 C.3       6 UNK         0.0367 
     41 CB         28.2832   29.5444   -1.3127 C.3       6 UNK        -0.1929 
     42 C          29.9945   30.1783    0.4436 C.2       6 UNK         0.5070 
     43 O          30.4577   31.2883    0.1832 O.2       6 UNK        -0.5237 
     44 N          30.7024   29.1923    1.0122 N.am      7 UNK        -0.4739 
     45 CA         32.0795   29.2814    1.4967 C.3       7 UNK         0.0276 
     46 CB         32.6160   27.8557    1.7029 C.3       7 UNK        -0.1927 
     47 C          32.2504   30.1087    2.7870 C.2       7 UNK         0.5013 
     48 O          33.3916   30.2956    3.2097 O.2       7 UNK        -0.5193 
     49 N          31.1568   30.6044    3.3937 N.am      8 UNK        -0.4253 
     50 CA         31.1387   31.3942    4.6366 C.3       8 UNK         0.0242 
     51 CB         29.6950   31.7879    4.9835 C.3       8 UNK        -0.2000 
     52 C          32.0467   32.6382    4.6517 C.2       8 UNK         0.4948 
     53 O          32.4675   33.0516    5.7317 O.2       8 UNK        -0.5275 
     54 N          32.3835   33.1790    3.4719 N.am      9 UNK        -0.4246 
     55 CA         33.3954   34.2250    3.2913 C.3       9 UNK         0.0261 
     56 CB         33.4122   34.6612    1.8173 C.3       9 UNK        -0.1959 
     57 C          34.8103   33.8069    3.7459 C.2       9 UNK         0.5033 
     58 O          35.5885   34.6761    4.1421 O.2       9 UNK        -0.5390 
     59 N          35.1110   32.5016    3.6936 N.am      10 UNK        -0.4215 
     60 CA         36.3407   31.8971    4.2043 C.3       10 UNK         0.0240 
     61 CB         36.9319   30.9649    3.1330 C.3       10 UNK        -0.1982 
     62 C          36.0746   31.1203    5.5035 C.2       10 UNK         0.4970 
     63 O          36.8717   31.2260    6.4364 O.2       10 UNK        -0.4916 
     64 N          34.9790   30.3489    5.5409 N.am      11 UNK        -0.4279 
     65 CA         34.5976   29.4877    6.6723 C.3       11 UNK         0.1003 
     66 C          34.1087   30.2417    7.9419 C.2       11 UNK         0.5709 
     67 N          33.6677   31.4904    7.8601 N.am      11 UNK        -0.7358 
     68 O          34.1420   29.6789    9.0337 O.2       11 UNK        -0.4999 
     69 C69        33.5795   28.3970    6.2460 C.3       12 UNK        -0.0954 
     70 S70        34.2731   27.2547    5.0050 S.3       12 UNK        -0.2268 
     71 C71        33.6125   25.6533    5.5623 C.3       12 UNK         0.0203 
     72 H72        29.2043   17.5797   -0.2649 H         1 UNK         0.0888 
     73 H73        27.7391   18.2192    0.4818 H         1 UNK         0.0888 
     74 H74        27.6953   17.6285   -1.1807 H         1 UNK         0.0888 
     75 H75        27.7778   20.4528    0.6081 H         1 UNK         0.3017 
     76 H76        29.6069   22.0908   -0.8177 H         1 UNK         0.0873 
     77 H77        27.1395   22.8751    0.8227 H         1 UNK         0.0745 
     78 H78        28.3376   24.0008    0.2624 H         1 UNK         0.0745 
     79 H79        31.3232   23.5747    1.6181 H         1 UNK         0.0705 
     80 H80        30.0768   24.7717    1.3812 H         1 UNK         0.0705 
     81 H81        32.7860   24.5210    3.2379 H         1 UNK         0.1334 
     82 H82        31.2794   26.3236    6.8212 H         1 UNK         0.1417 
     83 H83        28.5651   24.7457    3.8977 H         1 UNK         0.1562 
     84 H84        28.8800   27.0043    6.8365 H         1 UNK         0.0748 
     85 H85        28.5214   25.3262    7.1508 H         1 UNK         0.0748 
     86 H86        27.9210   28.4219    5.0999 H         1 UNK         0.0940 
     87 H87        26.2404   28.3422    4.6465 H         1 UNK         0.0940 
     88 H88        28.5560   27.0820    3.1169 H         1 UNK         0.0703 
     89 H89        27.1253   25.7766    2.1054 H         1 UNK         0.3081 
     90 H90        25.3337   24.7953    1.4509 H         1 UNK         0.0719 
     91 H91        22.8995   24.5874    1.2494 H         1 UNK         0.0809 
     92 H92        22.6855   26.3272    1.4458 H         1 UNK         0.0809 
     93 H93        23.2822   25.3532    2.7820 H         1 UNK         0.0809 
     94 H94        23.9190   25.6570   -0.6917 H         1 UNK         0.2990 
     95 H95        24.5378   26.3368   -2.7235 H         1 UNK         0.0690 
     96 H96        26.2284   28.0909   -3.0916 H         1 UNK         0.0788 
     97 H97        26.3065   26.9269   -4.3987 H         1 UNK         0.0788 
     98 H98        27.5288   26.9018   -3.1314 H         1 UNK         0.0788 
     99 H99        26.8518   24.4889   -3.0565 H         1 UNK         0.2993 
    100 H100       24.7639   21.5944   -2.9982 H         1 UNK         0.0949 
    101 H101       26.4795   21.1009   -4.7214 H         1 UNK         0.0767 
    102 H102       25.3410   22.3119   -5.2889 H         1 UNK         0.0767 
    103 H103       26.9495   22.7970   -4.7824 H         1 UNK         0.0767 
    104 H104       26.2713   21.2314   -1.4391 H         1 UNK         0.3013 
    105 H105       27.7351   27.9265    0.5361 H         1 UNK         0.3121 
    106 H106       27.9473   30.7930    0.3963 H         1 UNK         0.0774 
    107 H107       28.6939   30.3205   -1.9601 H         1 UNK         0.0815 
    108 H108       28.7561   28.6011   -1.5887 H         1 UNK         0.0815 
    109 H109       27.2197   29.4696   -1.5343 H         1 UNK         0.0815 
    110 H110       30.2325   28.3129    1.1663 H         1 UNK         0.2987 
    111 H111       32.6808   29.7676    0.7255 H         1 UNK         0.0949 
    112 H112       32.0717   27.3336    2.4904 H         1 UNK         0.0806 
    113 H113       32.5435   27.2632    0.7908 H         1 UNK         0.0806 
    114 H114       33.6678   27.8710    1.9924 H         1 UNK         0.0806 
    115 H115       30.2510   30.4017    2.9879 H         1 UNK         0.3010 
    116 H116       31.5010   30.7443    5.4333 H         1 UNK         0.0829 
    117 H117       29.0876   30.9092    5.1993 H         1 UNK         0.0813 
    118 H118       29.6598   32.4219    5.8709 H         1 UNK         0.0813 
    119 H119       29.2189   32.3362    4.1697 H         1 UNK         0.0813 
    120 H120       31.9811   32.7823    2.6345 H         1 UNK         0.3038 
    121 H121       33.0972   35.0811    3.9003 H         1 UNK         0.0769 
    122 H122       34.1391   35.4583    1.6548 H         1 UNK         0.0811 
    123 H123       32.4402   35.0432    1.5044 H         1 UNK         0.0811 
    124 H124       33.6792   33.8366    1.1549 H         1 UNK         0.0811 
    125 H125       34.3975   31.8498    3.3755 H         1 UNK         0.3204 
    126 H126       37.0809   32.6692    4.4246 H         1 UNK         0.0748 
    127 H127       37.8513   30.4965    3.4872 H         1 UNK         0.0771 
    128 H128       36.2404   30.1652    2.8629 H         1 UNK         0.0771 
    129 H129       37.1773   31.5147    2.2243 H         1 UNK         0.0771 
    130 H130       34.3905   30.2806    4.7143 H         1 UNK         0.2980 
    131 H131       35.5053   28.9674    6.9848 H         1 UNK         0.0545 
    132 H132       33.5611   31.9650    6.9707 H         1 UNK         0.3459 
    133 H133       33.3676   31.9533    8.7026 H         1 UNK         0.3459 
    134 H134       32.6747   28.8424    5.8338 H         1 UNK         0.0616 
    135 H135       33.2643   27.8174    7.1150 H         1 UNK         0.0616 
    136 H136       34.2538   24.8626    5.1700 H         1 UNK         0.0634 
    137 H137       33.6747   25.5749    6.6486 H         1 UNK         0.0634 
@<TRIPOS>BOND
     1    1    2 1    
     2    1   72 1    
     3    1   73 1    
     4    1   74 1    
     5    2    3 2    
     6    2    4 am   BACKBONE|DICT|INTERRES
     7    4    5 1    
     8    4   75 1    
     9    5    6 1    
    10    5   35 1    
    11    5   76 1    
    12    6    7 1    
    13    6   77 1    
    14    6   78 1    
    15    7    8 1    
    16    8    9 1    
    17    8   79 1    
    18    8   80 1    
    19    9   10 ar   
    20    9   14 ar   
    21   10   11 ar   
    22   10   81 1    
    23   11   12 ar   
    24   11   71 1    
    25   12   13 ar   
    26   12   82 1    
    27   13   14 ar   
    28   13   15 1    
    29   14   83 1    
    30   15   16 1    
    31   15   84 1    
    32   15   85 1    
    33   16   17 1    
    34   17   18 1    
    35   17   86 1    
    36   17   87 1    
    37   18   19 1    
    38   18   37 1    
    39   18   88 1    
    40   19   20 am   BACKBONE|DICT|INTERRES
    41   19   89 1    
    42   20   21 2    
    43   20   22 1    
    44   22   23 1    
    45   22   24 1    
    46   22   90 1    
    47   23   91 1    
    48   23   92 1    
    49   23   93 1    
    50   24   25 am   BACKBONE|DICT|INTERRES
    51   24   94 1    
    52   25   26 2    
    53   25   27 1    
    54   27   28 1    
    55   27   29 1    
    56   27   95 1    
    57   28   96 1    
    58   28   97 1    
    59   28   98 1    
    60   29   30 am   BACKBONE|DICT|INTERRES
    61   29   99 1    
    62   30   31 2    
    63   30   32 1    
    64   32   33 1    
    65   32   34 1    
    66   32  100 1    
    67   33  101 1    
    68   33  102 1    
    69   33  103 1    
    70   34   35 am   BACKBONE|DICT|INTERRES
    71   34  104 1    
    72   35   36 2    
    73   37   38 2    
    74   37   39 am   BACKBONE|DICT|INTERRES
    75   39   40 1    
    76   39  105 1    
    77   40   41 1    
    78   40   42 1    
    79   40  106 1    
    80   41  107 1    
    81   41  108 1    
    82   41  109 1    
    83   42   43 2    
    84   42   44 am   BACKBONE|DICT|INTERRES
    85   44   45 1    
    86   44  110 1    
    87   45   46 1    
    88   45   47 1    
    89   45  111 1    
    90   46  112 1    
    91   46  113 1    
    92   46  114 1    
    93   47   48 2    
    94   47   49 am   BACKBONE|DICT|INTERRES
    95   49   50 1    
    96   49  115 1    
    97   50   51 1    
    98   50   52 1    
    99   50  116 1    
   100   51  117 1    
   101   51  118 1    
   102   51  119 1    
   103   52   53 2    
   104   52   54 am   BACKBONE|DICT|INTERRES
   105   54   55 1    
   106   54  120 1    
   107   55   56 1    
   108   55   57 1    
   109   55  121 1    
   110   56  122 1    
   111   56  123 1    
   112   56  124 1    
   113   57   58 2    
   114   57   59 am   BACKBONE|DICT|INTERRES
   115   59   60 1    
   116   59  125 1    
   117   60   61 1    
   118   60   62 1    
   119   60  126 1    
   120   61  127 1    
   121   61  128 1    
   122   61  129 1    
   123   62   63 2    
   124   62   64 am   BACKBONE|DICT|INTERRES
   125   64   65 1    
   126   64  130 1    
   127   65   66 1    
   128   65   69 1    
   129   65  131 1    
   130   66   67 am   BACKBONE|DICT|INTERRES
   131   66   68 2    
   132   67  132 1    
   133   67  133 1    
   134   69   70 1    
   135   69  134 1    
   136   69  135 1    
   137   70   71 1    
   138   71  136 1    
   139   71  137 1    
@<TRIPOS>SUBSTRUCTURE
     1 UNK         1 GROUP             0       ****    0 ROOT    
