@<TRIPOS>MOLECULE
3R136
137   139    1
SMALL
USER_CHARGES


@<TRIPOS>ATOM
      1 CA         28.9332   24.4080   -3.0659 C.3       0 UNK        -0.1979 
      2 C          28.4474   22.9652   -3.1763 C.2       0 UNK         0.4864 
      3 O          27.8397   22.6103   -4.1845 O.2       0 UNK        -0.5359 
      4 N          28.6893   22.0962   -2.1839 N.am      1 UNK        -0.4318 
      5 CA         29.3490   22.3720   -0.9008 C.3       1 UNK         0.0824 
      6 C6         29.9276   21.0749   -0.2731 C.3       12 UNK        -0.0944 
      7 S7         31.6928   20.8814   -0.6931 S.3       12 UNK        -0.2672 
      8 C8         32.4729   20.6500    0.9402 C.3       12 UNK         0.0333 
      9 C9         32.2354   21.8177    1.8915 C.ar      12 UNK        -0.0807 
     10 C10        32.9005   23.0336    1.7052 C.ar      12 UNK        -0.0894 
     11 C11        32.7035   24.0974    2.5928 C.ar      12 UNK        -0.0804 
     12 C12        31.8342   23.9237    3.6758 C.ar      12 UNK        -0.0824 
     13 C13        31.1397   22.7241    3.8654 C.ar      12 UNK        -0.0762 
     14 C14        31.3597   21.6724    2.9723 C.ar      12 UNK        -0.0782 
     15 C15        30.1643   22.5125    5.0278 C.3       12 UNK         0.0230 
     16 S16        29.4094   24.0248    5.7339 S.3       12 UNK        -0.2608 
     17 C17        28.5197   24.7257    4.3030 C.3       12 UNK        -0.0989 
     18 CA         29.0630   26.1314    3.9216 C.3       5 UNK         0.0716 
     19 N          29.2532   26.2734    2.4785 N.am      5 UNK        -0.4135 
     20 C          29.9793   27.2335    1.8919 C.2       4 UNK         0.5031 
     21 O          30.6839   28.0315    2.5080 O.2       4 UNK        -0.5229 
     22 CA         29.9010   27.3264    0.3581 C.3       4 UNK         0.0329 
     23 CB         31.0079   26.4920   -0.3069 C.3       4 UNK        -0.2001 
     24 N          28.5963   26.9057   -0.1580 N.am      4 UNK        -0.4303 
     25 C          27.4685   27.6204   -0.0412 C.2       3 UNK         0.5044 
     26 O          27.4136   28.7259    0.4918 O.2       3 UNK        -0.5152 
     27 CA         26.1747   26.9770   -0.5695 C.3       3 UNK         0.0319 
     28 CB         26.0046   27.2573   -2.0710 C.3       3 UNK        -0.2001 
     29 N          26.1079   25.5334   -0.3264 N.am      3 UNK        -0.4354 
     30 C          26.0660   24.9719    0.8907 C.2       2 UNK         0.4964 
     31 O          26.0617   25.6116    1.9428 O.2       2 UNK        -0.5047 
     32 CA         26.1064   23.4348    0.9370 C.3       2 UNK         0.0288 
     33 CB         24.7208   22.8430    0.6331 C.3       2 UNK        -0.2113 
     34 N          27.1072   22.8450    0.0365 N.am      2 UNK        -0.4145 
     35 C          28.4228   23.1073    0.0873 C.2       1 UNK         0.5006 
     36 O          28.9158   23.9313    0.8556 O.2       1 UNK        -0.5103 
     37 C          28.2012   27.2744    4.4961 C.2       5 UNK         0.5055 
     38 O          28.5051   27.7805    5.5772 O.2       5 UNK        -0.5220 
     39 N          27.1495   27.6645    3.7615 N.am      6 UNK        -0.4450 
     40 CA         26.2602   28.7731    4.1092 C.3       6 UNK         0.0367 
     41 CB         24.9817   28.6875    3.2598 C.3       6 UNK        -0.1929 
     42 C          26.9228   30.1541    3.9557 C.2       6 UNK         0.5070 
     43 O          26.7211   31.0152    4.8129 O.2       6 UNK        -0.5237 
     44 N          27.6715   30.3570    2.8630 N.am      7 UNK        -0.4739 
     45 CA         28.3345   31.6179    2.5292 C.3       7 UNK         0.0276 
     46 CB         28.7987   31.5808    1.0635 C.3       7 UNK        -0.1927 
     47 C          29.5187   31.9162    3.4607 C.2       7 UNK         0.5013 
     48 O          30.5362   31.2227    3.3979 O.2       7 UNK        -0.5193 
     49 N          29.3990   32.9871    4.2579 N.am      8 UNK        -0.4253 
     50 CA         30.4382   33.4865    5.1693 C.3       8 UNK         0.0242 
     51 CB         29.8636   34.6411    6.0060 C.3       8 UNK        -0.2000 
     52 C          31.7391   33.9257    4.4684 C.2       8 UNK         0.4948 
     53 O          32.7949   33.9255    5.1012 O.2       8 UNK        -0.5275 
     54 N          31.6452   34.2721    3.1766 N.am      9 UNK        -0.4246 
     55 CA         32.7791   34.5717    2.2998 C.3       9 UNK         0.0261 
     56 CB         32.2604   35.2956    1.0459 C.3       9 UNK        -0.1959 
     57 C          33.5975   33.3268    1.9008 C.2       9 UNK         0.5033 
     58 O          34.7368   33.4878    1.4594 O.2       9 UNK        -0.5390 
     59 N          33.0153   32.1275    2.0418 N.am      10 UNK        -0.4215 
     60 CA         33.6585   30.8409    1.7935 C.3       10 UNK         0.0240 
     61 CB         32.7573   29.9930    0.8765 C.3       10 UNK        -0.1982 
     62 C          33.9863   30.2013    3.1523 C.2       10 UNK         0.4970 
     63 O          34.8826   30.7049    3.8321 O.2       10 UNK        -0.4916 
     64 N          33.2888   29.1235    3.5341 N.am      11 UNK        -0.4279 
     65 CA         33.4753   28.4561    4.8338 C.3       11 UNK         0.1003 
     66 C          32.6563   29.0992    5.9896 C.2       11 UNK         0.5709 
     67 N          31.6920   29.9735    5.7333 N.am      11 UNK        -0.7358 
     68 O          32.9134   28.8043    7.1546 O.2       11 UNK        -0.4999 
     69 C69        33.1970   26.9353    4.7474 C.3       12 UNK        -0.0954 
     70 S70        34.4121   26.0252    3.7315 S.3       12 UNK        -0.2268 
     71 C71        33.3925   25.4382    2.3402 C.3       12 UNK         0.0203 
     72 H72        30.0152   24.4478   -2.9438 H         1 UNK         0.0888 
     73 H73        28.6852   24.9632   -3.9706 H         1 UNK         0.0888 
     74 H74        28.4613   24.9162   -2.2291 H         1 UNK         0.0888 
     75 H75        28.3835   21.1419   -2.3119 H         1 UNK         0.3017 
     76 H76        30.1756   23.0621   -1.0803 H         1 UNK         0.0873 
     77 H77        29.8191   21.0616    0.8115 H         1 UNK         0.0745 
     78 H78        29.3887   20.1901   -0.6164 H         1 UNK         0.0745 
     79 H79        33.5464   20.5173    0.7990 H         1 UNK         0.0705 
     80 H80        32.1089   19.7177    1.3751 H         1 UNK         0.0705 
     81 H81        33.5667   23.1492    0.8611 H         1 UNK         0.1334 
     82 H82        31.6907   24.7248    4.3780 H         1 UNK         0.1417 
     83 H83        30.8439   20.7330    3.1191 H         1 UNK         0.1562 
     84 H84        30.6931   21.9906    5.8262 H         1 UNK         0.0748 
     85 H85        29.3555   21.8513    4.7124 H         1 UNK         0.0748 
     86 H86        27.4495   24.7420    4.5202 H         1 UNK         0.0940 
     87 H87        28.6242   24.0314    3.4685 H         1 UNK         0.0940 
     88 H88        30.0474   26.2586    4.3683 H         1 UNK         0.0703 
     89 H89        28.8076   25.5779    1.8887 H         1 UNK         0.3081 
     90 H90        30.0524   28.3718    0.0812 H         1 UNK         0.0719 
     91 H91        30.9789   25.4480    0.0077 H         1 UNK         0.0809 
     92 H92        30.9292   26.5198   -1.3936 H         1 UNK         0.0809 
     93 H93        31.9926   26.8827   -0.0512 H         1 UNK         0.0809 
     94 H94        28.5406   25.9779   -0.5467 H         1 UNK         0.2990 
     95 H95        25.3389   27.4408   -0.0413 H         1 UNK         0.0690 
     96 H96        26.7991   26.8039   -2.6645 H         1 UNK         0.0788 
     97 H97        26.0226   28.3299   -2.2699 H         1 UNK         0.0788 
     98 H98        25.0512   26.8785   -2.4398 H         1 UNK         0.0788 
     99 H99        26.0851   24.9305   -1.1355 H         1 UNK         0.2993 
    100 H100       26.3796   23.1525    1.9563 H         1 UNK         0.0949 
    101 H101       24.4059   23.0483   -0.3908 H         1 UNK         0.0767 
    102 H102       24.7116   21.7623    0.7767 H         1 UNK         0.0767 
    103 H103       23.9635   23.2617    1.2977 H         1 UNK         0.0767 
    104 H104       26.7754   22.1660   -0.6335 H         1 UNK         0.3013 
    105 H105       26.9233   27.1400    2.9221 H         1 UNK         0.3121 
    106 H106       25.9753   28.6585    5.1574 H         1 UNK         0.0774 
    107 H107       24.2829   29.4815    3.5262 H         1 UNK         0.0815 
    108 H108       25.1962   28.7854    2.1952 H         1 UNK         0.0815 
    109 H109       24.4679   27.7379    3.4107 H         1 UNK         0.0815 
    110 H110       27.7476   29.6130    2.1748 H         1 UNK         0.2987 
    111 H111       27.5993   32.4200    2.6240 H         1 UNK         0.0949 
    112 H112       29.4770   30.7473    0.8783 H         1 UNK         0.0806 
    113 H113       27.9528   31.4763    0.3839 H         1 UNK         0.0806 
    114 H114       29.3231   32.4974    0.7904 H         1 UNK         0.0806 
    115 H115       28.5225   33.4895    4.2601 H         1 UNK         0.3010 
    116 H116       30.6991   32.6720    5.8473 H         1 UNK         0.0829 
    117 H117       30.6034   35.0150    6.7155 H         1 UNK         0.0813 
    118 H118       29.5587   35.4812    5.3807 H         1 UNK         0.0813 
    119 H119       28.9975   34.3198    6.5851 H         1 UNK         0.0813 
    120 H120       30.7301   34.2697    2.7507 H         1 UNK         0.3038 
    121 H121       33.4525   35.2474    2.8316 H         1 UNK         0.0769 
    122 H122       33.0839   35.5674    0.3839 H         1 UNK         0.0811 
    123 H123       31.7395   36.2174    1.3055 H         1 UNK         0.0811 
    124 H124       31.5750   34.6703    0.4721 H         1 UNK         0.0811 
    125 H125       32.1000   32.0722    2.4783 H         1 UNK         0.3204 
    126 H126       34.6115   30.9780    1.2785 H         1 UNK         0.0748 
    127 H127       33.1338   28.9747    0.7723 H         1 UNK         0.0771 
    128 H128       31.7363   29.9437    1.2502 H         1 UNK         0.0771 
    129 H129       32.7125   30.4218   -0.1246 H         1 UNK         0.0771 
    130 H130       32.4985   28.8054    2.9808 H         1 UNK         0.2980 
    131 H131       34.5206   28.5643    5.1298 H         1 UNK         0.0545 
    132 H132       31.4363   30.2219    4.7823 H         1 UNK         0.3459 
    133 H133       31.1744   30.3579    6.5053 H         1 UNK         0.3459 
    134 H134       33.2078   26.4756    5.7376 H         1 UNK         0.0616 
    135 H135       32.1950   26.7919    4.3533 H         1 UNK         0.0616 
    136 H136       34.0378   25.3697    1.4632 H         1 UNK         0.0634 
    137 H137       32.6457   26.1916    2.1028 H         1 UNK         0.0634 
@<TRIPOS>BOND
     1    1    2 1    
     2    1   72 1    
     3    1   73 1    
     4    1   74 1    
     5    2    3 2    
     6    2    4 am   BACKBONE|DICT|INTERRES
     7    4    5 1    
     8    4   75 1    
     9    5    6 1    
    10    5   35 1    
    11    5   76 1    
    12    6    7 1    
    13    6   77 1    
    14    6   78 1    
    15    7    8 1    
    16    8    9 1    
    17    8   79 1    
    18    8   80 1    
    19    9   10 ar   
    20    9   14 ar   
    21   10   11 ar   
    22   10   81 1    
    23   11   12 ar   
    24   11   71 1    
    25   12   13 ar   
    26   12   82 1    
    27   13   14 ar   
    28   13   15 1    
    29   14   83 1    
    30   15   16 1    
    31   15   84 1    
    32   15   85 1    
    33   16   17 1    
    34   17   18 1    
    35   17   86 1    
    36   17   87 1    
    37   18   19 1    
    38   18   37 1    
    39   18   88 1    
    40   19   20 am   BACKBONE|DICT|INTERRES
    41   19   89 1    
    42   20   21 2    
    43   20   22 1    
    44   22   23 1    
    45   22   24 1    
    46   22   90 1    
    47   23   91 1    
    48   23   92 1    
    49   23   93 1    
    50   24   25 am   BACKBONE|DICT|INTERRES
    51   24   94 1    
    52   25   26 2    
    53   25   27 1    
    54   27   28 1    
    55   27   29 1    
    56   27   95 1    
    57   28   96 1    
    58   28   97 1    
    59   28   98 1    
    60   29   30 am   BACKBONE|DICT|INTERRES
    61   29   99 1    
    62   30   31 2    
    63   30   32 1    
    64   32   33 1    
    65   32   34 1    
    66   32  100 1    
    67   33  101 1    
    68   33  102 1    
    69   33  103 1    
    70   34   35 am   BACKBONE|DICT|INTERRES
    71   34  104 1    
    72   35   36 2    
    73   37   38 2    
    74   37   39 am   BACKBONE|DICT|INTERRES
    75   39   40 1    
    76   39  105 1    
    77   40   41 1    
    78   40   42 1    
    79   40  106 1    
    80   41  107 1    
    81   41  108 1    
    82   41  109 1    
    83   42   43 2    
    84   42   44 am   BACKBONE|DICT|INTERRES
    85   44   45 1    
    86   44  110 1    
    87   45   46 1    
    88   45   47 1    
    89   45  111 1    
    90   46  112 1    
    91   46  113 1    
    92   46  114 1    
    93   47   48 2    
    94   47   49 am   BACKBONE|DICT|INTERRES
    95   49   50 1    
    96   49  115 1    
    97   50   51 1    
    98   50   52 1    
    99   50  116 1    
   100   51  117 1    
   101   51  118 1    
   102   51  119 1    
   103   52   53 2    
   104   52   54 am   BACKBONE|DICT|INTERRES
   105   54   55 1    
   106   54  120 1    
   107   55   56 1    
   108   55   57 1    
   109   55  121 1    
   110   56  122 1    
   111   56  123 1    
   112   56  124 1    
   113   57   58 2    
   114   57   59 am   BACKBONE|DICT|INTERRES
   115   59   60 1    
   116   59  125 1    
   117   60   61 1    
   118   60   62 1    
   119   60  126 1    
   120   61  127 1    
   121   61  128 1    
   122   61  129 1    
   123   62   63 2    
   124   62   64 am   BACKBONE|DICT|INTERRES
   125   64   65 1    
   126   64  130 1    
   127   65   66 1    
   128   65   69 1    
   129   65  131 1    
   130   66   67 am   BACKBONE|DICT|INTERRES
   131   66   68 2    
   132   67  132 1    
   133   67  133 1    
   134   69   70 1    
   135   69  134 1    
   136   69  135 1    
   137   70   71 1    
   138   71  136 1    
   139   71  137 1    
@<TRIPOS>SUBSTRUCTURE
     1 UNK         1 GROUP             0       ****    0 ROOT    
