@<TRIPOS>MOLECULE
3R136
137   139    1
SMALL
USER_CHARGES


@<TRIPOS>ATOM
      1 CA         24.3183   28.3097    2.3432 C.3       0 UNK        -0.1979 
      2 C          24.7844   26.9058    2.6946 C.2       0 UNK         0.4864 
      3 O          24.0089   25.9572    2.5658 O.2       0 UNK        -0.5359 
      4 N          26.0351   26.7666    3.1501 N.am      1 UNK        -0.4318 
      5 CA         26.6592   25.4861    3.4948 C.3       1 UNK         0.0824 
      6 C6         27.7800   25.6626    4.5545 C.3       12 UNK        -0.0944 
      7 S7         29.1041   26.8183    4.0628 S.3       12 UNK        -0.2672 
      8 C8         30.4764   25.6747    3.7304 C.3       12 UNK         0.0333 
      9 C9         31.3650   26.2173    2.6261 C.ar      12 UNK        -0.0807 
     10 C10        32.5245   26.9316    2.9256 C.ar      12 UNK        -0.0894 
     11 C11        33.3405   27.4244    1.9057 C.ar      12 UNK        -0.0804 
     12 C12        32.9786   27.2079    0.5707 C.ar      12 UNK        -0.0824 
     13 C13        31.8038   26.5146    0.2522 C.ar      12 UNK        -0.0762 
     14 C14        31.0151   26.0090    1.2925 C.ar      12 UNK        -0.0782 
     15 C15        31.4193   26.3234   -1.2176 C.3       12 UNK         0.0230 
     16 S16        29.6269   26.1267   -1.5369 S.3       12 UNK        -0.2608 
     17 C17        28.9639   27.6595   -0.8015 C.3       12 UNK        -0.0989 
     18 CA         27.5796   28.0515   -1.3714 C.3       5 UNK         0.0716 
     19 N          26.5705   27.0228   -1.1030 N.am      5 UNK        -0.4135 
     20 C          25.3546   26.9880   -1.6633 C.2       4 UNK         0.5031 
     21 O          24.9654   27.8047   -2.5022 O.2       4 UNK        -0.5229 
     22 CA         24.4321   25.8327   -1.2259 C.3       4 UNK         0.0329 
     23 CB         23.0769   25.8282   -1.9646 C.3       4 UNK        -0.2001 
     24 N          25.0759   24.5184   -1.3286 N.am      4 UNK        -0.4303 
     25 C          25.6319   23.9526   -2.4107 C.2       3 UNK         0.5044 
     26 O          25.6534   24.4771   -3.5255 O.2       3 UNK        -0.5152 
     27 CA         26.2755   22.5626   -2.2065 C.3       3 UNK         0.0319 
     28 CB         27.0967   22.1044   -3.4268 C.3       3 UNK        -0.2001 
     29 N          27.1341   22.5127   -1.0194 N.am      3 UNK        -0.4354 
     30 C          26.7123   22.3835    0.2450 C.2       2 UNK         0.4964 
     31 O          25.5257   22.2510    0.5504 O.2       2 UNK        -0.5047 
     32 CA         27.7693   22.4501    1.3650 C.3       2 UNK         0.0288 
     33 CB         29.2072   22.7132    0.8624 C.3       2 UNK        -0.2113 
     34 N          27.3880   23.4211    2.4000 N.am      2 UNK        -0.4145 
     35 C          27.1297   24.7285    2.2319 C.2       1 UNK         0.5006 
     36 O          27.2449   25.3222    1.1540 O.2       1 UNK        -0.5103 
     37 C          27.1501   29.4173   -0.7975 C.2       5 UNK         0.5055 
     38 O          26.4464   29.4698    0.2128 O.2       5 UNK        -0.5220 
     39 N          27.6313   30.5013   -1.4221 N.am      6 UNK        -0.4450 
     40 CA         27.4874   31.8721   -0.9144 C.3       6 UNK         0.0367 
     41 CB         27.7490   32.8650   -2.0590 C.3       6 UNK        -0.1929 
     42 C          28.4175   32.1682    0.2801 C.2       6 UNK         0.5070 
     43 O          28.1572   33.1062    1.0346 O.2       6 UNK        -0.5237 
     44 N          29.4883   31.3754    0.4175 N.am      7 UNK        -0.4739 
     45 CA         30.4365   31.3995    1.5304 C.3       7 UNK         0.0276 
     46 CB         31.6955   30.6261    1.1012 C.3       7 UNK        -0.1927 
     47 C          29.8470   30.7922    2.8178 C.2       7 UNK         0.5013 
     48 O          28.7998   30.1424    2.7826 O.2       7 UNK        -0.5193 
     49 N          30.5663   30.9961    3.9253 N.am      8 UNK        -0.4253 
     50 CA         30.3308   30.3607    5.2200 C.3       8 UNK         0.0242 
     51 CB         30.1732   31.4562    6.2885 C.3       8 UNK        -0.2000 
     52 C          31.5296   29.4612    5.5486 C.2       8 UNK         0.4948 
     53 O          32.6019   29.6279    4.9591 O.2       8 UNK        -0.5275 
     54 N          31.3523   28.5559    6.5203 N.am      9 UNK        -0.4246 
     55 CA         32.3321   27.5673    6.9979 C.3       9 UNK         0.0261 
     56 CB         31.5890   26.5058    7.8310 C.3       9 UNK        -0.1959 
     57 C          33.5539   28.1586    7.7420 C.2       9 UNK         0.5033 
     58 O          33.9735   27.6153    8.7656 O.2       9 UNK        -0.5390 
     59 N          34.1053   29.2558    7.2151 N.am      10 UNK        -0.4215 
     60 CA         35.2953   29.9462    7.7094 C.3       10 UNK         0.0240 
     61 CB         35.0785   31.4625    7.5704 C.3       10 UNK        -0.1982 
     62 C          36.5715   29.5202    6.9638 C.2       10 UNK         0.4970 
     63 O          37.6616   29.7114    7.5051 O.2       10 UNK        -0.4916 
     64 N          36.4332   28.9771    5.7449 N.am      11 UNK        -0.4279 
     65 CA         37.5493   28.4773    4.9280 C.3       11 UNK         0.1003 
     66 C          38.2026   27.1827    5.4939 C.2       11 UNK         0.5709 
     67 N          39.4338   26.8884    5.0972 N.am      11 UNK        -0.7358 
     68 O          37.6047   26.4349    6.2664 O.2       11 UNK        -0.4999 
     69 C69        37.1618   28.3502    3.4285 C.3       12 UNK        -0.0954 
     70 S70        35.8274   27.1518    3.0829 S.3       12 UNK        -0.2268 
     71 C71        34.5949   28.2092    2.2616 C.3       12 UNK         0.0203 
     72 H72        25.0790   29.0571    2.5695 H         1 UNK         0.0888 
     73 H73        24.0886   28.3733    1.2799 H         1 UNK         0.0888 
     74 H74        23.4186   28.5607    2.9042 H         1 UNK         0.0888 
     75 H75        26.6532   27.5662    3.1822 H         1 UNK         0.3017 
     76 H76        25.8888   24.8626    3.9546 H         1 UNK         0.0873 
     77 H77        28.2077   24.6994    4.8374 H         1 UNK         0.0745 
     78 H78        27.3393   26.0545    5.4725 H         1 UNK         0.0745 
     79 H79        30.0931   24.6979    3.4326 H         1 UNK         0.0705 
     80 H80        31.0468   25.5179    4.6471 H         1 UNK         0.0705 
     81 H81        32.8007   27.1081    3.9526 H         1 UNK         0.1334 
     82 H82        33.6039   27.5952   -0.2222 H         1 UNK         0.1417 
     83 H83        30.1031   25.4746    1.0766 H         1 UNK         0.1562 
     84 H84        31.9360   25.4412   -1.5973 H         1 UNK         0.0748 
     85 H85        31.7781   27.1687   -1.8068 H         1 UNK         0.0748 
     86 H86        29.6913   28.4541   -0.9761 H         1 UNK         0.0940 
     87 H87        28.9031   27.5345    0.2821 H         1 UNK         0.0940 
     88 H88        27.6668   28.1515   -2.4555 H         1 UNK         0.0703 
     89 H89        26.8133   26.3367   -0.3913 H         1 UNK         0.3081 
     90 H90        24.2273   25.9904   -0.1671 H         1 UNK         0.0719 
     91 H91        22.5474   26.7698   -1.8140 H         1 UNK         0.0809 
     92 H92        23.2020   25.6933   -3.0395 H         1 UNK         0.0809 
     93 H93        22.4291   25.0315   -1.5993 H         1 UNK         0.0809 
     94 H94        25.1254   23.9858   -0.4663 H         1 UNK         0.2990 
     95 H95        25.4565   21.8522   -2.0753 H         1 UNK         0.0690 
     96 H96        27.5121   21.1080   -3.2748 H         1 UNK         0.0788 
     97 H97        27.9230   22.7857   -3.6346 H         1 UNK         0.0788 
     98 H98        26.4764   22.0595   -4.3230 H         1 UNK         0.0788 
     99 H99        28.1195   22.6710   -1.1744 H         1 UNK         0.2993 
    100 H100       27.7615   21.4706    1.8457 H         1 UNK         0.0949 
    101 H101       29.2694   23.6158    0.2561 H         1 UNK         0.0767 
    102 H102       29.9036   22.8211    1.6939 H         1 UNK         0.0767 
    103 H103       29.5676   21.8830    0.2536 H         1 UNK         0.0767 
    104 H104       27.2274   23.0229    3.3147 H         1 UNK         0.3013 
    105 H105       28.1819   30.3839   -2.2613 H         1 UNK         0.3121 
    106 H106       26.4596   32.0100   -0.5711 H         1 UNK         0.0774 
    107 H107       27.6187   33.8935   -1.7190 H         1 UNK         0.0815 
    108 H108       28.7644   32.7775   -2.4475 H         1 UNK         0.0815 
    109 H109       27.0562   32.7097   -2.8862 H         1 UNK         0.0815 
    110 H110       29.5965   30.6222   -0.2421 H         1 UNK         0.2987 
    111 H111       30.7060   32.4385    1.7334 H         1 UNK         0.0949 
    112 H112       32.1411   31.0532    0.2026 H         1 UNK         0.0806 
    113 H113       32.4608   30.6433    1.8782 H         1 UNK         0.0806 
    114 H114       31.4654   29.5798    0.8986 H         1 UNK         0.0806 
    115 H115       31.4606   31.4592    3.8402 H         1 UNK         0.3010 
    116 H116       29.4295   29.7443    5.1943 H         1 UNK         0.0829 
    117 H117       29.3420   32.1205    6.0514 H         1 UNK         0.0813 
    118 H118       29.9709   31.0256    7.2700 H         1 UNK         0.0813 
    119 H119       31.0730   32.0665    6.3789 H         1 UNK         0.0813 
    120 H120       30.4494   28.5233    6.9717 H         1 UNK         0.3038 
    121 H121       32.7403   27.0559    6.1272 H         1 UNK         0.0769 
    122 H122       32.2589   25.6979    8.1285 H         1 UNK         0.0811 
    123 H123       30.7758   26.0522    7.2637 H         1 UNK         0.0811 
    124 H124       31.1675   26.9328    8.7418 H         1 UNK         0.0811 
    125 H125       33.6805   29.6089    6.3572 H         1 UNK         0.3204 
    126 H126       35.4403   29.7184    8.7676 H         1 UNK         0.0748 
    127 H127       35.9392   32.0174    7.9465 H         1 UNK         0.0771 
    128 H128       34.9286   31.7560    6.5304 H         1 UNK         0.0771 
    129 H129       34.2086   31.7911    8.1394 H         1 UNK         0.0771 
    130 H130       35.5085   28.8136    5.3780 H         1 UNK         0.2980 
    131 H131       38.3248   29.2446    4.9782 H         1 UNK         0.0545 
    132 H132       39.8718   26.0496    5.4447 H         1 UNK         0.3459 
    133 H133       39.9344   27.4868    4.4588 H         1 UNK         0.3459 
    134 H134       36.8704   29.3312    3.0502 H         1 UNK         0.0616 
    135 H135       38.0318   28.0619    2.8362 H         1 UNK         0.0616 
    136 H136       34.3275   29.0353    2.9219 H         1 UNK         0.0634 
    137 H137       35.0401   28.6523    1.3695 H         1 UNK         0.0634 
@<TRIPOS>BOND
     1    1    2 1    
     2    1   72 1    
     3    1   73 1    
     4    1   74 1    
     5    2    3 2    
     6    2    4 am   BACKBONE|DICT|INTERRES
     7    4    5 1    
     8    4   75 1    
     9    5    6 1    
    10    5   35 1    
    11    5   76 1    
    12    6    7 1    
    13    6   77 1    
    14    6   78 1    
    15    7    8 1    
    16    8    9 1    
    17    8   79 1    
    18    8   80 1    
    19    9   10 ar   
    20    9   14 ar   
    21   10   11 ar   
    22   10   81 1    
    23   11   12 ar   
    24   11   71 1    
    25   12   13 ar   
    26   12   82 1    
    27   13   14 ar   
    28   13   15 1    
    29   14   83 1    
    30   15   16 1    
    31   15   84 1    
    32   15   85 1    
    33   16   17 1    
    34   17   18 1    
    35   17   86 1    
    36   17   87 1    
    37   18   19 1    
    38   18   37 1    
    39   18   88 1    
    40   19   20 am   BACKBONE|DICT|INTERRES
    41   19   89 1    
    42   20   21 2    
    43   20   22 1    
    44   22   23 1    
    45   22   24 1    
    46   22   90 1    
    47   23   91 1    
    48   23   92 1    
    49   23   93 1    
    50   24   25 am   BACKBONE|DICT|INTERRES
    51   24   94 1    
    52   25   26 2    
    53   25   27 1    
    54   27   28 1    
    55   27   29 1    
    56   27   95 1    
    57   28   96 1    
    58   28   97 1    
    59   28   98 1    
    60   29   30 am   BACKBONE|DICT|INTERRES
    61   29   99 1    
    62   30   31 2    
    63   30   32 1    
    64   32   33 1    
    65   32   34 1    
    66   32  100 1    
    67   33  101 1    
    68   33  102 1    
    69   33  103 1    
    70   34   35 am   BACKBONE|DICT|INTERRES
    71   34  104 1    
    72   35   36 2    
    73   37   38 2    
    74   37   39 am   BACKBONE|DICT|INTERRES
    75   39   40 1    
    76   39  105 1    
    77   40   41 1    
    78   40   42 1    
    79   40  106 1    
    80   41  107 1    
    81   41  108 1    
    82   41  109 1    
    83   42   43 2    
    84   42   44 am   BACKBONE|DICT|INTERRES
    85   44   45 1    
    86   44  110 1    
    87   45   46 1    
    88   45   47 1    
    89   45  111 1    
    90   46  112 1    
    91   46  113 1    
    92   46  114 1    
    93   47   48 2    
    94   47   49 am   BACKBONE|DICT|INTERRES
    95   49   50 1    
    96   49  115 1    
    97   50   51 1    
    98   50   52 1    
    99   50  116 1    
   100   51  117 1    
   101   51  118 1    
   102   51  119 1    
   103   52   53 2    
   104   52   54 am   BACKBONE|DICT|INTERRES
   105   54   55 1    
   106   54  120 1    
   107   55   56 1    
   108   55   57 1    
   109   55  121 1    
   110   56  122 1    
   111   56  123 1    
   112   56  124 1    
   113   57   58 2    
   114   57   59 am   BACKBONE|DICT|INTERRES
   115   59   60 1    
   116   59  125 1    
   117   60   61 1    
   118   60   62 1    
   119   60  126 1    
   120   61  127 1    
   121   61  128 1    
   122   61  129 1    
   123   62   63 2    
   124   62   64 am   BACKBONE|DICT|INTERRES
   125   64   65 1    
   126   64  130 1    
   127   65   66 1    
   128   65   69 1    
   129   65  131 1    
   130   66   67 am   BACKBONE|DICT|INTERRES
   131   66   68 2    
   132   67  132 1    
   133   67  133 1    
   134   69   70 1    
   135   69  134 1    
   136   69  135 1    
   137   70   71 1    
   138   71  136 1    
   139   71  137 1    
@<TRIPOS>SUBSTRUCTURE
     1 UNK         1 GROUP             0       ****    0 ROOT    
