@<TRIPOS>MOLECULE
3R136
137   139    1
SMALL
USER_CHARGES


@<TRIPOS>ATOM
      1 CA         27.2337   18.2888   -0.8718 C.3       0 UNK        -0.1979 
      2 C          28.2697   19.4010   -0.9454 C.2       0 UNK         0.4864 
      3 O          29.3116   19.2254   -1.5798 O.2       0 UNK        -0.5359 
      4 N          27.9960   20.5386   -0.2943 N.am      1 UNK        -0.4318 
      5 CA         28.8526   21.7304   -0.2882 C.3       1 UNK         0.0824 
      6 C6         28.4822   22.7127    0.8551 C.3       12 UNK        -0.0944 
      7 S7         28.3823   21.9148    2.4933 S.3       12 UNK        -0.2672 
      8 C8         30.1112   21.9846    3.0579 C.3       12 UNK         0.0333 
      9 C9         30.5096   23.3605    3.5758 C.ar      12 UNK        -0.0807 
     10 C10        31.5153   24.0930    2.9380 C.ar      12 UNK        -0.0894 
     11 C11        31.9426   25.3201    3.4565 C.ar      12 UNK        -0.0804 
     12 C12        31.3304   25.8244    4.6114 C.ar      12 UNK        -0.0824 
     13 C13        30.3285   25.0979    5.2653 C.ar      12 UNK        -0.0762 
     14 C14        29.9206   23.8693    4.7373 C.ar      12 UNK        -0.0782 
     15 C15        29.7511   25.5814    6.5920 C.3       12 UNK         0.0230 
     16 S16        29.0888   27.2767    6.5373 S.3       12 UNK        -0.2608 
     17 C17        27.5478   27.0814    5.5753 C.3       12 UNK        -0.0989 
     18 CA         27.5106   28.0122    4.3379 C.3       5 UNK         0.0716 
     19 N          26.5829   27.5213    3.3071 N.am      5 UNK        -0.4135 
     20 C          26.4194   28.0593    2.0896 C.2       4 UNK         0.5031 
     21 O          26.9518   29.1099    1.7216 O.2       4 UNK        -0.5229 
     22 CA         25.4706   27.3281    1.1275 C.3       4 UNK         0.0329 
     23 CB         24.1099   28.0416    1.0793 C.3       4 UNK        -0.2001 
     24 N          26.0321   27.2623   -0.2246 N.am      4 UNK        -0.4303 
     25 C          27.1489   26.5950   -0.5412 C.2       3 UNK         0.5044 
     26 O          27.7908   25.9113    0.2623 O.2       3 UNK        -0.5152 
     27 CA         27.6339   26.7055   -1.9926 C.3       3 UNK         0.0319 
     28 CB         28.2269   28.0939   -2.3007 C.3       3 UNK        -0.2001 
     29 N          28.6419   25.6719   -2.1885 N.am      3 UNK        -0.4354 
     30 C          29.0234   25.1226   -3.3445 C.2       2 UNK         0.4964 
     31 O          28.6309   25.4996   -4.4493 O.2       2 UNK        -0.5047 
     32 CA         30.0010   23.9344   -3.2494 C.3       2 UNK         0.0288 
     33 CB         31.4517   24.4213   -3.4014 C.3       2 UNK        -0.2113 
     34 N          29.8796   23.1608   -2.0050 N.am      2 UNK        -0.4145 
     35 C          28.7985   22.4472   -1.6548 C.2       1 UNK         0.5006 
     36 O          27.7802   22.3688   -2.3490 O.2       1 UNK        -0.5103 
     37 C          27.2930   29.4935    4.7241 C.2       5 UNK         0.5055 
     38 O          28.2635   30.1748    5.0496 O.2       5 UNK        -0.5220 
     39 N          26.0543   29.9949    4.5965 N.am      6 UNK        -0.4450 
     40 CA         25.6946   31.4102    4.7523 C.3       6 UNK         0.0367 
     41 CB         24.1867   31.5772    4.5045 C.3       6 UNK        -0.1929 
     42 C          26.4962   32.3745    3.8511 C.2       6 UNK         0.5070 
     43 O          26.6988   33.5250    4.2408 O.2       6 UNK        -0.5237 
     44 N          26.9534   31.8876    2.6894 N.am      7 UNK        -0.4739 
     45 CA         27.8979   32.5747    1.8096 C.3       7 UNK         0.0276 
     46 CB         27.3530   32.5515    0.3718 C.3       7 UNK        -0.1927 
     47 C          29.2871   31.9171    1.8623 C.2       7 UNK         0.5013 
     48 O          30.2915   32.6297    1.8550 O.2       7 UNK        -0.5193 
     49 N          29.3285   30.5766    1.8877 N.am      8 UNK        -0.4253 
     50 CA         30.5460   29.7799    1.7215 C.3       8 UNK         0.0242 
     51 CB         30.1749   28.3464    1.3057 C.3       8 UNK        -0.2000 
     52 C          31.5008   29.7681    2.9271 C.2       8 UNK         0.4948 
     53 O          32.6518   29.3827    2.7322 O.2       8 UNK        -0.5275 
     54 N          31.0616   30.2005    4.1232 N.am      9 UNK        -0.4246 
     55 CA         31.8365   30.2232    5.3812 C.3       9 UNK         0.0261 
     56 CB         31.0037   30.8780    6.4961 C.3       9 UNK        -0.1959 
     57 C          33.2328   30.8780    5.3220 C.2       9 UNK         0.5033 
     58 O          34.0708   30.5837    6.1771 O.2       9 UNK        -0.5390 
     59 N          33.4854   31.6997    4.2934 N.am      10 UNK        -0.4215 
     60 CA         34.8017   32.2093    3.8991 C.3       10 UNK         0.0240 
     61 CB         34.6326   33.1219    2.6733 C.3       10 UNK        -0.1982 
     62 C          35.8577   31.1165    3.6166 C.2       10 UNK         0.4970 
     63 O          37.0479   31.4334    3.6439 O.2       10 UNK        -0.4916 
     64 N          35.4315   29.8644    3.3798 N.am      11 UNK        -0.4279 
     65 CA         36.3032   28.6794    3.3332 C.3       11 UNK         0.1003 
     66 C          37.0694   28.3689    4.6570 C.2       11 UNK         0.5709 
     67 N          36.6489   28.8838    5.8086 N.am      11 UNK        -0.7358 
     68 O          38.0705   27.6564    4.6319 O.2       11 UNK        -0.4999 
     69 C69        35.5610   27.4291    2.7792 C.3       12 UNK        -0.0954 
     70 S70        34.3386   26.6904    3.9236 S.3       12 UNK        -0.2268 
     71 C71        33.0709   26.0800    2.7630 C.3       12 UNK         0.0203 
     72 H72        26.3709   18.5747   -0.2702 H         1 UNK         0.0888 
     73 H73        26.8813   18.0379   -1.8720 H         1 UNK         0.0888 
     74 H74        27.6733   17.3949   -0.4302 H         1 UNK         0.0888 
     75 H75        27.1230   20.6313    0.2044 H         1 UNK         0.3017 
     76 H76        29.8794   21.3946   -0.1279 H         1 UNK         0.0873 
     77 H77        29.1964   23.5367    0.9076 H         1 UNK         0.0745 
     78 H78        27.5105   23.1716    0.6610 H         1 UNK         0.0745 
     79 H79        30.2410   21.2593    3.8623 H         1 UNK         0.0705 
     80 H80        30.7699   21.6601    2.2510 H         1 UNK         0.0705 
     81 H81        31.9850   23.6942    2.0493 H         1 UNK         0.1334 
     82 H82        31.6574   26.7697    5.0221 H         1 UNK         0.1417 
     83 H83        29.1620   23.2881    5.2441 H         1 UNK         0.1562 
     84 H84        30.5442   25.5484    7.3401 H         1 UNK         0.0748 
     85 H85        28.9698   24.9093    6.9507 H         1 UNK         0.0748 
     86 H86        26.6908   27.2553    6.2289 H         1 UNK         0.0940 
     87 H87        27.4753   26.0396    5.2587 H         1 UNK         0.0940 
     88 H88        28.4976   27.9689    3.8777 H         1 UNK         0.0703 
     89 H89        26.0894   26.6676    3.5242 H         1 UNK         0.3081 
     90 H90        25.3196   26.3057    1.4805 H         1 UNK         0.0719 
     91 H91        24.2051   29.0692    0.7249 H         1 UNK         0.0809 
     92 H92        23.4122   27.5229    0.4215 H         1 UNK         0.0809 
     93 H93        23.6516   28.0798    2.0684 H         1 UNK         0.0809 
     94 H94        25.5808   27.8246   -0.9311 H         1 UNK         0.2990 
     95 H95        26.7850   26.5100   -2.6510 H         1 UNK         0.0690 
     96 H96        28.4778   28.1880   -3.3573 H         1 UNK         0.0788 
     97 H97        29.1359   28.2813   -1.7296 H         1 UNK         0.0788 
     98 H98        27.5209   28.8913   -2.0658 H         1 UNK         0.0788 
     99 H99        28.9761   25.2780   -1.3170 H         1 UNK         0.2993 
    100 H100       29.7749   23.2637   -4.0814 H         1 UNK         0.0949 
    101 H101       32.1511   23.5853   -3.4279 H         1 UNK         0.0767 
    102 H102       31.5807   24.9780   -4.3309 H         1 UNK         0.0767 
    103 H103       31.7447   25.0810   -2.5835 H         1 UNK         0.0767 
    104 H104       30.6776   23.1770   -1.3862 H         1 UNK         0.3013 
    105 H105       25.3149   29.3692    4.3135 H         1 UNK         0.3121 
    106 H106       25.9066   31.6858    5.7874 H         1 UNK         0.0774 
    107 H107       23.8829   32.6166    4.6369 H         1 UNK         0.0815 
    108 H108       23.9097   31.2839    3.4910 H         1 UNK         0.0815 
    109 H109       23.5994   30.9797    5.2019 H         1 UNK         0.0815 
    110 H110       26.7446   30.9220    2.4545 H         1 UNK         0.2987 
    111 H111       28.0161   33.6178    2.1115 H         1 UNK         0.0949 
    112 H112       27.2076   31.5328    0.0091 H         1 UNK         0.0806 
    113 H113       26.3961   33.0693    0.3046 H         1 UNK         0.0806 
    114 H114       28.0396   33.0489   -0.3146 H         1 UNK         0.0806 
    115 H115       28.4502   30.0616    1.8673 H         1 UNK         0.3010 
    116 H116       31.0995   30.2228    0.8904 H         1 UNK         0.0829 
    117 H117       29.3694   28.3368    0.5741 H         1 UNK         0.0813 
    118 H118       31.0269   27.8468    0.8453 H         1 UNK         0.0813 
    119 H119       29.8634   27.7339    2.1503 H         1 UNK         0.0813 
    120 H120       30.0806   30.4498    4.2110 H         1 UNK         0.3038 
    121 H121       32.0053   29.1811    5.6586 H         1 UNK         0.0769 
    122 H122       30.6289   31.8578    6.1983 H         1 UNK         0.0811 
    123 H123       31.5907   31.0137    7.4058 H         1 UNK         0.0811 
    124 H124       30.1513   30.2572    6.7686 H         1 UNK         0.0811 
    125 H125       32.7302   31.8625    3.6424 H         1 UNK         0.3204 
    126 H126       35.1781   32.8109    4.7287 H         1 UNK         0.0748 
    127 H127       33.9622   33.9548    2.8868 H         1 UNK         0.0771 
    128 H128       35.5888   33.5487    2.3672 H         1 UNK         0.0771 
    129 H129       34.2297   32.5763    1.8187 H         1 UNK         0.0771 
    130 H130       34.4326   29.6822    3.3142 H         1 UNK         0.2980 
    131 H131       37.0798   28.9196    2.6048 H         1 UNK         0.0545 
    132 H132       37.1553   28.6787    6.6546 H         1 UNK         0.3459 
    133 H133       35.8128   29.4557    5.8452 H         1 UNK         0.3459 
    134 H134       36.2837   26.6533    2.5211 H         1 UNK         0.0616 
    135 H135       35.0616   27.6888    1.8444 H         1 UNK         0.0616 
    136 H136       32.6487   26.9128    2.2067 H         1 UNK         0.0634 
    137 H137       33.5646   25.4405    2.0298 H         1 UNK         0.0634 
@<TRIPOS>BOND
     1    1    2 1    
     2    1   72 1    
     3    1   73 1    
     4    1   74 1    
     5    2    3 2    
     6    2    4 am   BACKBONE|DICT|INTERRES
     7    4    5 1    
     8    4   75 1    
     9    5    6 1    
    10    5   35 1    
    11    5   76 1    
    12    6    7 1    
    13    6   77 1    
    14    6   78 1    
    15    7    8 1    
    16    8    9 1    
    17    8   79 1    
    18    8   80 1    
    19    9   10 ar   
    20    9   14 ar   
    21   10   11 ar   
    22   10   81 1    
    23   11   12 ar   
    24   11   71 1    
    25   12   13 ar   
    26   12   82 1    
    27   13   14 ar   
    28   13   15 1    
    29   14   83 1    
    30   15   16 1    
    31   15   84 1    
    32   15   85 1    
    33   16   17 1    
    34   17   18 1    
    35   17   86 1    
    36   17   87 1    
    37   18   19 1    
    38   18   37 1    
    39   18   88 1    
    40   19   20 am   BACKBONE|DICT|INTERRES
    41   19   89 1    
    42   20   21 2    
    43   20   22 1    
    44   22   23 1    
    45   22   24 1    
    46   22   90 1    
    47   23   91 1    
    48   23   92 1    
    49   23   93 1    
    50   24   25 am   BACKBONE|DICT|INTERRES
    51   24   94 1    
    52   25   26 2    
    53   25   27 1    
    54   27   28 1    
    55   27   29 1    
    56   27   95 1    
    57   28   96 1    
    58   28   97 1    
    59   28   98 1    
    60   29   30 am   BACKBONE|DICT|INTERRES
    61   29   99 1    
    62   30   31 2    
    63   30   32 1    
    64   32   33 1    
    65   32   34 1    
    66   32  100 1    
    67   33  101 1    
    68   33  102 1    
    69   33  103 1    
    70   34   35 am   BACKBONE|DICT|INTERRES
    71   34  104 1    
    72   35   36 2    
    73   37   38 2    
    74   37   39 am   BACKBONE|DICT|INTERRES
    75   39   40 1    
    76   39  105 1    
    77   40   41 1    
    78   40   42 1    
    79   40  106 1    
    80   41  107 1    
    81   41  108 1    
    82   41  109 1    
    83   42   43 2    
    84   42   44 am   BACKBONE|DICT|INTERRES
    85   44   45 1    
    86   44  110 1    
    87   45   46 1    
    88   45   47 1    
    89   45  111 1    
    90   46  112 1    
    91   46  113 1    
    92   46  114 1    
    93   47   48 2    
    94   47   49 am   BACKBONE|DICT|INTERRES
    95   49   50 1    
    96   49  115 1    
    97   50   51 1    
    98   50   52 1    
    99   50  116 1    
   100   51  117 1    
   101   51  118 1    
   102   51  119 1    
   103   52   53 2    
   104   52   54 am   BACKBONE|DICT|INTERRES
   105   54   55 1    
   106   54  120 1    
   107   55   56 1    
   108   55   57 1    
   109   55  121 1    
   110   56  122 1    
   111   56  123 1    
   112   56  124 1    
   113   57   58 2    
   114   57   59 am   BACKBONE|DICT|INTERRES
   115   59   60 1    
   116   59  125 1    
   117   60   61 1    
   118   60   62 1    
   119   60  126 1    
   120   61  127 1    
   121   61  128 1    
   122   61  129 1    
   123   62   63 2    
   124   62   64 am   BACKBONE|DICT|INTERRES
   125   64   65 1    
   126   64  130 1    
   127   65   66 1    
   128   65   69 1    
   129   65  131 1    
   130   66   67 am   BACKBONE|DICT|INTERRES
   131   66   68 2    
   132   67  132 1    
   133   67  133 1    
   134   69   70 1    
   135   69  134 1    
   136   69  135 1    
   137   70   71 1    
   138   71  136 1    
   139   71  137 1    
@<TRIPOS>SUBSTRUCTURE
     1 UNK         1 GROUP             0       ****    0 ROOT    
