@<TRIPOS>MOLECULE
3R136
137   139    1
SMALL
USER_CHARGES


@<TRIPOS>ATOM
      1 CA         29.2772   22.6269   -3.9368 C.3       0 UNK        -0.1979 
      2 C          28.1129   22.6474   -2.9490 C.2       0 UNK         0.4864 
      3 O          26.9604   22.6802   -3.3784 O.2       0 UNK        -0.5359 
      4 N          28.3500   22.6139   -1.6297 N.am      1 UNK        -0.4318 
      5 CA         29.6561   22.6388   -0.9599 C.3       1 UNK         0.0824 
      6 C6         29.5640   21.9942    0.4482 C.3       12 UNK        -0.0944 
      7 S7         31.1577   21.3110    1.0363 S.3       12 UNK        -0.2672 
      8 C8         30.6844   20.5111    2.6037 C.3       12 UNK         0.0333 
      9 C9         30.0188   21.4901    3.5586 C.ar      12 UNK        -0.0807 
     10 C10        30.7849   22.3276    4.3762 C.ar      12 UNK        -0.0894 
     11 C11        30.1610   23.2582    5.2143 C.ar      12 UNK        -0.0804 
     12 C12        28.7654   23.3435    5.2337 C.ar      12 UNK        -0.0824 
     13 C13        27.9950   22.5249    4.4035 C.ar      12 UNK        -0.0762 
     14 C14        28.6255   21.5827    3.5902 C.ar      12 UNK        -0.0782 
     15 C15        26.4861   22.6848    4.3336 C.3       12 UNK         0.0230 
     16 S16        26.0276   23.8507    3.0090 S.3       12 UNK        -0.2608 
     17 C17        26.3064   25.4568    3.8282 C.3       12 UNK        -0.0989 
     18 CA         27.6182   26.1762    3.3929 C.3       5 UNK         0.0716 
     19 N          27.7080   26.4651    1.9561 N.am      5 UNK        -0.4135 
     20 C          26.8665   27.2226    1.2361 C.2       4 UNK         0.5031 
     21 O          25.8519   27.7543    1.6886 O.2       4 UNK        -0.5229 
     22 CA         27.2531   27.4350   -0.2420 C.3       4 UNK         0.0329 
     23 CB         26.3400   28.4375   -0.9793 C.3       4 UNK        -0.2001 
     24 N          28.6632   27.8054   -0.4023 N.am      4 UNK        -0.4303 
     25 C          29.2914   28.8566    0.1501 C.2       3 UNK         0.5044 
     26 O          28.7263   29.7167    0.8298 O.2       3 UNK        -0.5152 
     27 CA         30.8147   28.9604   -0.0732 C.3       3 UNK         0.0319 
     28 CB         31.5302   29.6680    1.0921 C.3       3 UNK        -0.2001 
     29 N          31.4777   27.6833   -0.3584 N.am      3 UNK        -0.4354 
     30 C          31.4737   26.5797    0.4032 C.2       2 UNK         0.4964 
     31 O          30.8706   26.4699    1.4748 O.2       2 UNK        -0.5047 
     32 CA         32.2525   25.3849   -0.1698 C.3       2 UNK         0.0288 
     33 CB         33.4726   25.0596    0.7041 C.3       2 UNK        -0.2113 
     34 N          31.4374   24.1791   -0.3107 N.am      2 UNK        -0.4145 
     35 C          30.2459   24.0693   -0.9126 C.2       1 UNK         0.5006 
     36 O          29.6400   25.0192   -1.4198 O.2       1 UNK        -0.5103 
     37 C          27.8914   27.4433    4.2330 C.2       5 UNK         0.5055 
     38 O          27.1298   27.7425    5.1554 O.2       5 UNK        -0.5220 
     39 N          28.9732   28.1645    3.8953 N.am      6 UNK        -0.4450 
     40 CA         29.4246   29.4102    4.5352 C.3       6 UNK         0.0367 
     41 CB         29.9203   29.1443    5.9739 C.3       6 UNK        -0.1929 
     42 C          28.3812   30.5459    4.4712 C.2       6 UNK         0.5070 
     43 O          28.1963   31.2745    5.4479 O.2       6 UNK        -0.5237 
     44 N          27.7115   30.6746    3.3202 N.am      7 UNK        -0.4739 
     45 CA         26.7601   31.7482    3.0357 C.3       7 UNK         0.0276 
     46 CB         25.5802   31.1854    2.2285 C.3       7 UNK        -0.1927 
     47 C          27.4450   32.8893    2.2723 C.2       7 UNK         0.5013 
     48 O          27.2083   34.0559    2.5873 O.2       7 UNK        -0.5193 
     49 N          28.2846   32.5352    1.2891 N.am      8 UNK        -0.4253 
     50 CA         29.0188   33.4841    0.4472 C.3       8 UNK         0.0242 
     51 CB         29.2806   32.8288   -0.9192 C.3       8 UNK        -0.2000 
     52 C          30.3455   33.9511    1.0723 C.2       8 UNK         0.4948 
     53 O          30.8601   34.9963    0.6725 O.2       8 UNK        -0.5275 
     54 N          30.8842   33.1649    2.0108 N.am      9 UNK        -0.4246 
     55 CA         32.1849   33.3276    2.6579 C.3       9 UNK         0.0261 
     56 CB         33.3410   33.1685    1.6391 C.3       9 UNK        -0.1959 
     57 C          32.2386   32.3325    3.8288 C.2       9 UNK         0.5033 
     58 O          31.3302   32.3499    4.6590 O.2       9 UNK        -0.5390 
     59 N          33.2612   31.4714    3.8695 N.am      10 UNK        -0.4215 
     60 CA         33.4336   30.3884    4.8362 C.3       10 UNK         0.0240 
     61 CB         34.5188   30.7827    5.8526 C.3       10 UNK        -0.1982 
     62 C          33.8249   29.1111    4.0826 C.2       10 UNK         0.4970 
     63 O          34.3152   29.1997    2.9543 O.2       10 UNK        -0.4916 
     64 N          33.6162   27.9534    4.7217 N.am      11 UNK        -0.4279 
     65 CA         33.9006   26.6233    4.1517 C.3       11 UNK         0.1003 
     66 C          35.4115   26.3031    3.9415 C.2       11 UNK         0.5709 
     67 N          36.3412   27.0610    4.5114 N.am      11 UNK        -0.7358 
     68 O          35.7459   25.3461    3.2481 O.2       11 UNK        -0.4999 
     69 C69        33.2184   25.4815    4.9534 C.3       12 UNK        -0.0954 
     70 S70        31.4236   25.7088    5.1664 S.3       12 UNK        -0.2268 
     71 C71        30.9872   24.1960    6.0791 C.3       12 UNK         0.0203 
     72 H72        28.9082   22.6664   -4.9615 H         1 UNK         0.0888 
     73 H73        29.9323   23.4847   -3.7907 H         1 UNK         0.0888 
     74 H74        29.8604   21.7126   -3.8318 H         1 UNK         0.0888 
     75 H75        27.5547   22.6549   -1.0093 H         1 UNK         0.3017 
     76 H76        30.3431   22.0330   -1.5533 H         1 UNK         0.0873 
     77 H77        29.1762   22.7139    1.1718 H         1 UNK         0.0745 
     78 H78        28.8539   21.1653    0.4348 H         1 UNK         0.0745 
     79 H79        31.5753   20.0877    3.0698 H         1 UNK         0.0705 
     80 H80        30.0214   19.6705    2.3927 H         1 UNK         0.0705 
     81 H81        31.8644   22.2717    4.3427 H         1 UNK         0.1334 
     82 H82        28.2819   24.0761    5.8653 H         1 UNK         0.1417 
     83 H83        28.0304   20.9533    2.9422 H         1 UNK         0.1562 
     84 H84        26.0826   23.0128    5.2927 H         1 UNK         0.0748 
     85 H85        26.0216   21.7193    4.1267 H         1 UNK         0.0748 
     86 H86        26.3024   25.2984    4.9077 H         1 UNK         0.0940 
     87 H87        25.4389   26.0885    3.6322 H         1 UNK         0.0940 
     88 H88        28.4513   25.5050    3.6016 H         1 UNK         0.0703 
     89 H89        28.5439   26.1212    1.5009 H         1 UNK         0.3081 
     90 H90        27.1331   26.4646   -0.7268 H         1 UNK         0.0719 
     91 H91        26.4193   29.4417   -0.5651 H         1 UNK         0.0809 
     92 H92        26.5920   28.4941   -2.0381 H         1 UNK         0.0809 
     93 H93        25.2934   28.1381   -0.9121 H         1 UNK         0.0809 
     94 H94        29.2253   27.1329   -0.9125 H         1 UNK         0.2990 
     95 H95        30.9408   29.5778   -0.9634 H         1 UNK         0.0690 
     96 H96        32.5885   29.8092    0.8742 H         1 UNK         0.0788 
     97 H97        31.4560   29.0991    2.0181 H         1 UNK         0.0788 
     98 H98        31.1052   30.6513    1.2727 H         1 UNK         0.0788 
     99 H99        31.9797   27.6502   -1.2353 H         1 UNK         0.2993 
    100 H100       32.6107   25.6431   -1.1684 H         1 UNK         0.0949 
    101 H101       34.0909   24.2834    0.2528 H         1 UNK         0.0767 
    102 H102       34.1056   25.9381    0.8374 H         1 UNK         0.0767 
    103 H103       33.1744   24.7136    1.6949 H         1 UNK         0.0767 
    104 H104       31.8085   23.3428    0.1218 H         1 UNK         0.3013 
    105 H105       29.5418   27.8279    3.1284 H         1 UNK         0.3121 
    106 H106       30.2792   29.7615    3.9578 H         1 UNK         0.0774 
    107 H107       30.3218   30.0536    6.4229 H         1 UNK         0.0815 
    108 H108       29.1175   28.7938    6.6227 H         1 UNK         0.0815 
    109 H109       30.7146   28.4011    5.9918 H         1 UNK         0.0815 
    110 H110       27.9390   30.0542    2.5478 H         1 UNK         0.2987 
    111 H111       26.3628   32.1575    3.9674 H         1 UNK         0.0949 
    112 H112       25.9042   30.7677    1.2758 H         1 UNK         0.0806 
    113 H113       25.0677   30.3954    2.7781 H         1 UNK         0.0806 
    114 H114       24.8461   31.9630    2.0137 H         1 UNK         0.0806 
    115 H115       28.4108   31.5455    1.0879 H         1 UNK         0.3010 
    116 H116       28.4010   34.3703    0.2853 H         1 UNK         0.0829 
    117 H117       28.3498   32.5274   -1.4001 H         1 UNK         0.0813 
    118 H118       29.7843   33.5219   -1.5945 H         1 UNK         0.0813 
    119 H119       29.9128   31.9451   -0.8288 H         1 UNK         0.0813 
    120 H120       30.3376   32.3839    2.3456 H         1 UNK         0.3038 
    121 H121       32.2316   34.3299    3.0878 H         1 UNK         0.0769 
    122 H122       34.3136   33.2796    2.1202 H         1 UNK         0.0811 
    123 H123       33.2966   33.9330    0.8637 H         1 UNK         0.0811 
    124 H124       33.3184   32.1993    1.1403 H         1 UNK         0.0811 
    125 H125       33.9199   31.4543    3.1014 H         1 UNK         0.3204 
    126 H126       32.4983   30.2000    5.3641 H         1 UNK         0.0748 
    127 H127       34.6625   30.0022    6.6009 H         1 UNK         0.0771 
    128 H128       35.4812   30.9561    5.3692 H         1 UNK         0.0771 
    129 H129       34.2452   31.6933    6.3861 H         1 UNK         0.0771 
    130 H130       33.2264   27.9574    5.6522 H         1 UNK         0.2980 
    131 H131       33.4562   26.6229    3.1555 H         1 UNK         0.0545 
    132 H132       36.0817   27.8492    5.0813 H         1 UNK         0.3459 
    133 H133       37.3135   26.8414    4.3640 H         1 UNK         0.3459 
    134 H134       33.6715   25.3916    5.9424 H         1 UNK         0.0616 
    135 H135       33.3716   24.5232    4.4530 H         1 UNK         0.0616 
    136 H136       31.8846   23.6879    6.4351 H         1 UNK         0.0634 
    137 H137       30.4248   24.4765    6.9709 H         1 UNK         0.0634 
@<TRIPOS>BOND
     1    1    2 1    
     2    1   72 1    
     3    1   73 1    
     4    1   74 1    
     5    2    3 2    
     6    2    4 am   BACKBONE|DICT|INTERRES
     7    4    5 1    
     8    4   75 1    
     9    5    6 1    
    10    5   35 1    
    11    5   76 1    
    12    6    7 1    
    13    6   77 1    
    14    6   78 1    
    15    7    8 1    
    16    8    9 1    
    17    8   79 1    
    18    8   80 1    
    19    9   10 ar   
    20    9   14 ar   
    21   10   11 ar   
    22   10   81 1    
    23   11   12 ar   
    24   11   71 1    
    25   12   13 ar   
    26   12   82 1    
    27   13   14 ar   
    28   13   15 1    
    29   14   83 1    
    30   15   16 1    
    31   15   84 1    
    32   15   85 1    
    33   16   17 1    
    34   17   18 1    
    35   17   86 1    
    36   17   87 1    
    37   18   19 1    
    38   18   37 1    
    39   18   88 1    
    40   19   20 am   BACKBONE|DICT|INTERRES
    41   19   89 1    
    42   20   21 2    
    43   20   22 1    
    44   22   23 1    
    45   22   24 1    
    46   22   90 1    
    47   23   91 1    
    48   23   92 1    
    49   23   93 1    
    50   24   25 am   BACKBONE|DICT|INTERRES
    51   24   94 1    
    52   25   26 2    
    53   25   27 1    
    54   27   28 1    
    55   27   29 1    
    56   27   95 1    
    57   28   96 1    
    58   28   97 1    
    59   28   98 1    
    60   29   30 am   BACKBONE|DICT|INTERRES
    61   29   99 1    
    62   30   31 2    
    63   30   32 1    
    64   32   33 1    
    65   32   34 1    
    66   32  100 1    
    67   33  101 1    
    68   33  102 1    
    69   33  103 1    
    70   34   35 am   BACKBONE|DICT|INTERRES
    71   34  104 1    
    72   35   36 2    
    73   37   38 2    
    74   37   39 am   BACKBONE|DICT|INTERRES
    75   39   40 1    
    76   39  105 1    
    77   40   41 1    
    78   40   42 1    
    79   40  106 1    
    80   41  107 1    
    81   41  108 1    
    82   41  109 1    
    83   42   43 2    
    84   42   44 am   BACKBONE|DICT|INTERRES
    85   44   45 1    
    86   44  110 1    
    87   45   46 1    
    88   45   47 1    
    89   45  111 1    
    90   46  112 1    
    91   46  113 1    
    92   46  114 1    
    93   47   48 2    
    94   47   49 am   BACKBONE|DICT|INTERRES
    95   49   50 1    
    96   49  115 1    
    97   50   51 1    
    98   50   52 1    
    99   50  116 1    
   100   51  117 1    
   101   51  118 1    
   102   51  119 1    
   103   52   53 2    
   104   52   54 am   BACKBONE|DICT|INTERRES
   105   54   55 1    
   106   54  120 1    
   107   55   56 1    
   108   55   57 1    
   109   55  121 1    
   110   56  122 1    
   111   56  123 1    
   112   56  124 1    
   113   57   58 2    
   114   57   59 am   BACKBONE|DICT|INTERRES
   115   59   60 1    
   116   59  125 1    
   117   60   61 1    
   118   60   62 1    
   119   60  126 1    
   120   61  127 1    
   121   61  128 1    
   122   61  129 1    
   123   62   63 2    
   124   62   64 am   BACKBONE|DICT|INTERRES
   125   64   65 1    
   126   64  130 1    
   127   65   66 1    
   128   65   69 1    
   129   65  131 1    
   130   66   67 am   BACKBONE|DICT|INTERRES
   131   66   68 2    
   132   67  132 1    
   133   67  133 1    
   134   69   70 1    
   135   69  134 1    
   136   69  135 1    
   137   70   71 1    
   138   71  136 1    
   139   71  137 1    
@<TRIPOS>SUBSTRUCTURE
     1 UNK         1 GROUP             0       ****    0 ROOT    
