@<TRIPOS>MOLECULE
3R136
137   139    1
SMALL
USER_CHARGES


@<TRIPOS>ATOM
      1 CA         28.4347   25.1927   -2.7137 C.3       0 UNK        -0.1979 
      2 C          28.4523   24.5519   -1.3354 C.2       0 UNK         0.4864 
      3 O          28.0503   25.1930   -0.3623 O.2       0 UNK        -0.5359 
      4 N          28.8959   23.2880   -1.2486 N.am      1 UNK        -0.4318 
      5 CA         29.0587   22.5132   -0.0085 C.3       1 UNK         0.0824 
      6 C6         29.6537   21.1021   -0.2527 C.3       12 UNK        -0.0944 
      7 S7         31.1591   21.0937   -1.2815 S.3       12 UNK        -0.2672 
      8 C8         32.4756   21.1871   -0.0236 C.3       12 UNK         0.0333 
      9 C9         32.5897   22.5759    0.5917 C.ar      12 UNK        -0.0807 
     10 C10        32.5108   22.7510    1.9778 C.ar      12 UNK        -0.0894 
     11 C11        32.6337   24.0271    2.5385 C.ar      12 UNK        -0.0804 
     12 C12        32.8272   25.1306    1.7023 C.ar      12 UNK        -0.0824 
     13 C13        32.9089   24.9677    0.3182 C.ar      12 UNK        -0.0762 
     14 C14        32.7961   23.6885   -0.2299 C.ar      12 UNK        -0.0782 
     15 C15        33.1282   26.1648   -0.5908 C.3       12 UNK         0.0230 
     16 S16        31.5499   26.9315   -1.0655 S.3       12 UNK        -0.2608 
     17 C17        31.3448   28.1898    0.2381 C.3       12 UNK        -0.0989 
     18 CA         29.8795   28.2915    0.7413 C.3       5 UNK         0.0716 
     19 N          29.4067   27.0763    1.4198 N.am      5 UNK        -0.4135 
     20 C          29.7499   26.6456    2.6444 C.2       4 UNK         0.5031 
     21 O          30.6595   27.1379    3.3102 O.2       4 UNK        -0.5229 
     22 CA         28.9056   25.5081    3.2614 C.3       4 UNK         0.0329 
     23 CB         28.7879   25.6423    4.7960 C.3       4 UNK        -0.2001 
     24 N          27.5670   25.3627    2.6723 N.am      4 UNK        -0.4303 
     25 C          26.6068   26.2979    2.5678 C.2       3 UNK         0.5044 
     26 O          26.7250   27.4400    3.0114 O.2       3 UNK        -0.5152 
     27 CA         25.3323   25.9351    1.7828 C.3       3 UNK         0.0319 
     28 CB         25.0197   27.0098    0.7254 C.3       3 UNK        -0.2001 
     29 N          25.4706   24.6466    1.1033 N.am      3 UNK        -0.4354 
     30 C          24.8703   23.5064    1.4698 C.2       2 UNK         0.4964 
     31 O          24.0462   23.4254    2.3809 O.2       2 UNK        -0.5047 
     32 CA         25.2696   22.2290    0.7058 C.3       2 UNK         0.0288 
     33 CB         24.2460   21.9233   -0.3997 C.3       2 UNK        -0.2113 
     34 N          26.6117   22.2833    0.1153 N.am      2 UNK        -0.4145 
     35 C          27.7570   22.3837    0.8079 C.2       1 UNK         0.5006 
     36 O          27.8087   22.4200    2.0374 O.2       1 UNK        -0.5103 
     37 C          29.6351   29.5887    1.5563 C.2       5 UNK         0.5055 
     38 O          30.3386   30.5772    1.3367 O.2       5 UNK        -0.5220 
     39 N          28.6357   29.6017    2.4566 N.am      6 UNK        -0.4450 
     40 CA         28.3732   30.6879    3.4124 C.3       6 UNK         0.0367 
     41 CB         27.2592   30.2629    4.3810 C.3       6 UNK        -0.1929 
     42 C          28.0517   32.0569    2.7869 C.2       6 UNK         0.5070 
     43 O          28.2271   33.0763    3.4543 O.2       6 UNK        -0.5237 
     44 N          27.6207   32.0664    1.5182 N.am      7 UNK        -0.4739 
     45 CA         27.4410   33.2733    0.7069 C.3       7 UNK         0.0276 
     46 CB         26.6858   32.9041   -0.5802 C.3       7 UNK        -0.1927 
     47 C          28.7652   33.9884    0.3687 C.2       7 UNK         0.5013 
     48 O          28.7408   35.1936    0.1153 O.2       7 UNK        -0.5193 
     49 N          29.8821   33.2470    0.3689 N.am      8 UNK        -0.4253 
     50 CA         31.2348   33.7633    0.1724 C.3       8 UNK         0.0242 
     51 CB         31.9919   32.8678   -0.8254 C.3       8 UNK        -0.2000 
     52 C          31.9599   33.8393    1.5226 C.2       8 UNK         0.4948 
     53 O          32.3450   34.9325    1.9392 O.2       8 UNK        -0.5275 
     54 N          32.1121   32.6867    2.1861 N.am      9 UNK        -0.4246 
     55 CA         32.7427   32.5148    3.4927 C.3       9 UNK         0.0261 
     56 CB         34.2553   32.8137    3.4352 C.3       9 UNK        -0.1959 
     57 C          32.4959   31.0700    3.9361 C.2       9 UNK         0.5033 
     58 O          32.8688   30.1478    3.2079 O.2       9 UNK        -0.5390 
     59 N          31.8684   30.8977    5.1052 N.am      10 UNK        -0.4215 
     60 CA         31.5362   29.5892    5.6706 C.3       10 UNK         0.0240 
     61 CB         30.4766   29.7690    6.7710 C.3       10 UNK        -0.1982 
     62 C          32.7742   28.8736    6.2355 C.2       10 UNK         0.4970 
     63 O          33.6726   29.5387    6.7584 O.2       10 UNK        -0.4916 
     64 N          32.7700   27.5354    6.1764 N.am      11 UNK        -0.4279 
     65 CA         33.7388   26.6748    6.8772 C.3       11 UNK         0.1003 
     66 C          33.6309   26.8074    8.4227 C.2       11 UNK         0.5709 
     67 N          34.7485   26.7332    9.1326 N.am      11 UNK        -0.7358 
     68 O          32.5426   26.9327    8.9824 O.2       11 UNK        -0.4999 
     69 C69        33.6094   25.1853    6.4614 C.3       12 UNK        -0.0954 
     70 S70        34.0911   24.8926    4.7289 S.3       12 UNK        -0.2268 
     71 C71        32.5440   24.2262    4.0442 C.3       12 UNK         0.0203 
     72 H72        29.0137   26.1156   -2.7026 H         1 UNK         0.0888 
     73 H73        28.8575   24.5366   -3.4743 H         1 UNK         0.0888 
     74 H74        27.4121   25.4354   -3.0006 H         1 UNK         0.0888 
     75 H75        29.2245   22.8233   -2.0835 H         1 UNK         0.3017 
     76 H76        29.7606   23.0746    0.6116 H         1 UNK         0.0873 
     77 H77        28.9232   20.4645   -0.7550 H         1 UNK         0.0745 
     78 H78        29.8736   20.6119    0.6979 H         1 UNK         0.0745 
     79 H79        32.3043   20.4272    0.7403 H         1 UNK         0.0705 
     80 H80        33.4267   20.9374   -0.4956 H         1 UNK         0.0705 
     81 H81        32.3578   21.8944    2.6201 H         1 UNK         0.1334 
     82 H82        32.9163   26.1171    2.1367 H         1 UNK         0.1417 
     83 H83        32.8597   23.5571   -1.3017 H         1 UNK         0.1562 
     84 H84        33.6472   25.8503   -1.4976 H         1 UNK         0.0748 
     85 H85        33.7800   26.8976   -0.1126 H         1 UNK         0.0748 
     86 H86        31.6787   29.1318   -0.2005 H         1 UNK         0.0940 
     87 H87        32.0172   27.9994    1.0755 H         1 UNK         0.0940 
     88 H88        29.2410   28.3961   -0.1371 H         1 UNK         0.0703 
     89 H89        28.7168   26.5334    0.9073 H         1 UNK         0.3081 
     90 H90        29.4392   24.5823    3.0421 H         1 UNK         0.0719 
     91 H91        28.3057   26.5779    5.0815 H         1 UNK         0.0809 
     92 H92        28.2076   24.8233    5.2206 H         1 UNK         0.0809 
     93 H93        29.7649   25.6252    5.2783 H         1 UNK         0.0809 
     94 H94        27.3781   24.4481    2.2791 H         1 UNK         0.2990 
     95 H95        24.5096   25.9077    2.4997 H         1 UNK         0.0690 
     96 H96        24.1158   26.7645    0.1678 H         1 UNK         0.0788 
     97 H97        25.8358   27.1192    0.0097 H         1 UNK         0.0788 
     98 H98        24.8571   27.9840    1.1884 H         1 UNK         0.0788 
     99 H99        26.1648   24.6204    0.3637 H         1 UNK         0.2993 
    100 H100       25.2569   21.4066    1.4246 H         1 UNK         0.0949 
    101 H101       24.4639   20.9752   -0.8920 H         1 UNK         0.0767 
    102 H102       23.2382   21.8480    0.0114 H         1 UNK         0.0767 
    103 H103       24.2296   22.7033   -1.1620 H         1 UNK         0.0767 
    104 H104       26.6656   22.2705   -0.8931 H         1 UNK         0.3013 
    105 H105       28.0649   28.7669    2.5706 H         1 UNK         0.3121 
    106 H106       29.2869   30.8229    3.9915 H         1 UNK         0.0774 
    107 H107       27.0731   31.0344    5.1295 H         1 UNK         0.0815 
    108 H108       26.3200   30.0811    3.8573 H         1 UNK         0.0815 
    109 H109       27.5261   29.3515    4.9165 H         1 UNK         0.0815 
    110 H110       27.4938   31.1783    1.0552 H         1 UNK         0.2987 
    111 H111       26.8284   33.9756    1.2766 H         1 UNK         0.0949 
    112 H112       27.2459   32.1920   -1.1876 H         1 UNK         0.0806 
    113 H113       25.7123   32.4664   -0.3586 H         1 UNK         0.0806 
    114 H114       26.5088   33.7878   -1.1951 H         1 UNK         0.0806 
    115 H115       29.8169   32.2708    0.6453 H         1 UNK         0.3010 
    116 H116       31.2006   34.7718   -0.2456 H         1 UNK         0.0829 
    117 H117       31.5144   32.8826   -1.8051 H         1 UNK         0.0813 
    118 H118       33.0172   33.2148   -0.9597 H         1 UNK         0.0813 
    119 H119       32.0385   31.8292   -0.4961 H         1 UNK         0.0813 
    120 H120       31.7132   31.8339    1.7955 H         1 UNK         0.3038 
    121 H121       32.2676   33.1999    4.1978 H         1 UNK         0.0769 
    122 H122       34.7297   32.6036    4.3947 H         1 UNK         0.0811 
    123 H123       34.4537   33.8596    3.2029 H         1 UNK         0.0811 
    124 H124       34.7560   32.2026    2.6831 H         1 UNK         0.0811 
    125 H125       31.6458   31.7048    5.6694 H         1 UNK         0.3204 
    126 H126       31.1041   28.9819    4.8771 H         1 UNK         0.0748 
    127 H127       30.1709   28.8039    7.1779 H         1 UNK         0.0771 
    128 H128       30.8550   30.3662    7.6018 H         1 UNK         0.0771 
    129 H129       29.5794   30.2554    6.3895 H         1 UNK         0.0771 
    130 H130       32.0044   27.0679    5.7140 H         1 UNK         0.2980 
    131 H131       34.7346   27.0186    6.5893 H         1 UNK         0.0545 
    132 H132       35.6445   26.6171    8.6851 H         1 UNK         0.3459 
    133 H133       34.6958   26.8012   10.1370 H         1 UNK         0.3459 
    134 H134       32.5943   24.8245    6.6380 H         1 UNK         0.0616 
    135 H135       34.2612   24.5592    7.0739 H         1 UNK         0.0616 
    136 H136       31.7329   24.9162    4.2651 H         1 UNK         0.0634 
    137 H137       32.3047   23.2888    4.5487 H         1 UNK         0.0634 
@<TRIPOS>BOND
     1    1    2 1    
     2    1   72 1    
     3    1   73 1    
     4    1   74 1    
     5    2    3 2    
     6    2    4 am   BACKBONE|DICT|INTERRES
     7    4    5 1    
     8    4   75 1    
     9    5    6 1    
    10    5   35 1    
    11    5   76 1    
    12    6    7 1    
    13    6   77 1    
    14    6   78 1    
    15    7    8 1    
    16    8    9 1    
    17    8   79 1    
    18    8   80 1    
    19    9   10 ar   
    20    9   14 ar   
    21   10   11 ar   
    22   10   81 1    
    23   11   12 ar   
    24   11   71 1    
    25   12   13 ar   
    26   12   82 1    
    27   13   14 ar   
    28   13   15 1    
    29   14   83 1    
    30   15   16 1    
    31   15   84 1    
    32   15   85 1    
    33   16   17 1    
    34   17   18 1    
    35   17   86 1    
    36   17   87 1    
    37   18   19 1    
    38   18   37 1    
    39   18   88 1    
    40   19   20 am   BACKBONE|DICT|INTERRES
    41   19   89 1    
    42   20   21 2    
    43   20   22 1    
    44   22   23 1    
    45   22   24 1    
    46   22   90 1    
    47   23   91 1    
    48   23   92 1    
    49   23   93 1    
    50   24   25 am   BACKBONE|DICT|INTERRES
    51   24   94 1    
    52   25   26 2    
    53   25   27 1    
    54   27   28 1    
    55   27   29 1    
    56   27   95 1    
    57   28   96 1    
    58   28   97 1    
    59   28   98 1    
    60   29   30 am   BACKBONE|DICT|INTERRES
    61   29   99 1    
    62   30   31 2    
    63   30   32 1    
    64   32   33 1    
    65   32   34 1    
    66   32  100 1    
    67   33  101 1    
    68   33  102 1    
    69   33  103 1    
    70   34   35 am   BACKBONE|DICT|INTERRES
    71   34  104 1    
    72   35   36 2    
    73   37   38 2    
    74   37   39 am   BACKBONE|DICT|INTERRES
    75   39   40 1    
    76   39  105 1    
    77   40   41 1    
    78   40   42 1    
    79   40  106 1    
    80   41  107 1    
    81   41  108 1    
    82   41  109 1    
    83   42   43 2    
    84   42   44 am   BACKBONE|DICT|INTERRES
    85   44   45 1    
    86   44  110 1    
    87   45   46 1    
    88   45   47 1    
    89   45  111 1    
    90   46  112 1    
    91   46  113 1    
    92   46  114 1    
    93   47   48 2    
    94   47   49 am   BACKBONE|DICT|INTERRES
    95   49   50 1    
    96   49  115 1    
    97   50   51 1    
    98   50   52 1    
    99   50  116 1    
   100   51  117 1    
   101   51  118 1    
   102   51  119 1    
   103   52   53 2    
   104   52   54 am   BACKBONE|DICT|INTERRES
   105   54   55 1    
   106   54  120 1    
   107   55   56 1    
   108   55   57 1    
   109   55  121 1    
   110   56  122 1    
   111   56  123 1    
   112   56  124 1    
   113   57   58 2    
   114   57   59 am   BACKBONE|DICT|INTERRES
   115   59   60 1    
   116   59  125 1    
   117   60   61 1    
   118   60   62 1    
   119   60  126 1    
   120   61  127 1    
   121   61  128 1    
   122   61  129 1    
   123   62   63 2    
   124   62   64 am   BACKBONE|DICT|INTERRES
   125   64   65 1    
   126   64  130 1    
   127   65   66 1    
   128   65   69 1    
   129   65  131 1    
   130   66   67 am   BACKBONE|DICT|INTERRES
   131   66   68 2    
   132   67  132 1    
   133   67  133 1    
   134   69   70 1    
   135   69  134 1    
   136   69  135 1    
   137   70   71 1    
   138   71  136 1    
   139   71  137 1    
@<TRIPOS>SUBSTRUCTURE
     1 UNK         1 GROUP             0       ****    0 ROOT    
