@<TRIPOS>MOLECULE
3R136
137   139    1
SMALL
USER_CHARGES


@<TRIPOS>ATOM
      1 CA         27.1149   20.2494   -0.3546 C.3       0 UNK        -0.1979 
      2 C          28.3662   21.0234   -0.7623 C.2       0 UNK         0.4864 
      3 O          28.7741   20.9334   -1.9186 O.2       0 UNK        -0.5359 
      4 N          29.0187   21.7900    0.1258 N.am      1 UNK        -0.4318 
      5 CA         28.6899   22.0559    1.5362 C.3       1 UNK         0.0824 
      6 C6         28.8252   20.7995    2.4438 C.3       12 UNK        -0.0944 
      7 S7         29.5871   21.1724    4.0617 S.3       12 UNK        -0.2672 
      8 C8         31.3465   20.7799    3.7739 C.3       12 UNK         0.0333 
      9 C9         32.0959   21.9462    3.1417 C.ar      12 UNK        -0.0807 
     10 C10        32.6400   22.9489    3.9512 C.ar      12 UNK        -0.0894 
     11 C11        33.3166   24.0317    3.3816 C.ar      12 UNK        -0.0804 
     12 C12        33.4527   24.1072    1.9937 C.ar      12 UNK        -0.0824 
     13 C13        32.9009   23.1207    1.1718 C.ar      12 UNK        -0.0762 
     14 C14        32.2420   22.0304    1.7531 C.ar      12 UNK        -0.0782 
     15 C15        32.9551   23.2665   -0.3458 C.3       12 UNK         0.0230 
     16 S16        32.2353   24.8390   -0.9544 S.3       12 UNK        -0.2608 
     17 C17        30.6886   24.9984    0.0039 C.3       12 UNK        -0.0989 
     18 CA         30.5568   26.4022    0.6576 C.3       5 UNK         0.0716 
     19 N          29.9500   27.3419   -0.2822 N.am      5 UNK        -0.4135 
     20 C          30.2267   28.6469   -0.3731 C.2       4 UNK         0.5031 
     21 O          31.0726   29.2116    0.3187 O.2       4 UNK        -0.5229 
     22 CA         29.3870   29.4646   -1.3725 C.3       4 UNK         0.0329 
     23 CB         30.0886   29.5267   -2.7382 C.3       4 UNK        -0.2001 
     24 N          28.0283   28.9393   -1.5450 N.am      4 UNK        -0.4303 
     25 C          27.0873   28.9303   -0.5893 C.2       3 UNK         0.5044 
     26 O          27.2376   29.4412    0.5198 O.2       3 UNK        -0.5152 
     27 CA         25.7570   28.2187   -0.9045 C.3       3 UNK         0.0319 
     28 CB         25.5201   27.9577   -2.4104 C.3       3 UNK        -0.2001 
     29 N          25.6084   26.9761   -0.1339 N.am      3 UNK        -0.4354 
     30 C          26.4252   25.9125   -0.1586 C.2       2 UNK         0.4964 
     31 O          27.4479   25.8429   -0.8486 O.2       2 UNK        -0.5047 
     32 CA         26.0168   24.7158    0.7141 C.3       2 UNK         0.0288 
     33 CB         24.7683   24.0104    0.1500 C.3       2 UNK        -0.2113 
     34 N          27.1337   23.7788    0.7582 N.am      2 UNK        -0.4145 
     35 C          27.3771   22.8606    1.7025 C.2       1 UNK         0.5006 
     36 O          26.6134   22.6320    2.6425 O.2       1 UNK        -0.5103 
     37 C          29.7499   26.4060    1.9766 C.2       5 UNK         0.5055 
     38 O          29.2999   25.3555    2.4321 O.2       5 UNK        -0.5220 
     39 N          29.5649   27.5894    2.5706 N.am      6 UNK        -0.4450 
     40 CA         28.9193   27.7871    3.8634 C.3       6 UNK         0.0367 
     41 CB         27.4018   27.9548    3.6774 C.3       6 UNK        -0.1929 
     42 C          29.5321   29.0227    4.5240 C.2       6 UNK         0.5070 
     43 O          29.9876   29.9299    3.8212 O.2       6 UNK        -0.5237 
     44 N          29.5109   29.0545    5.8630 N.am      7 UNK        -0.4739 
     45 CA         30.1138   30.1012    6.7001 C.3       7 UNK         0.0276 
     46 CB         29.9398   29.7321    8.1812 C.3       7 UNK        -0.1927 
     47 C          29.5851   31.5219    6.4338 C.2       7 UNK         0.5013 
     48 O          30.3376   32.4822    6.5977 O.2       7 UNK        -0.5193 
     49 N          28.3349   31.6294    5.9609 N.am      8 UNK        -0.4253 
     50 CA         27.7084   32.8723    5.4957 C.3       8 UNK         0.0242 
     51 CB         26.2368   32.5934    5.1493 C.3       8 UNK        -0.2000 
     52 C          28.4267   33.5253    4.2966 C.2       8 UNK         0.4948 
     53 O          28.3243   34.7406    4.1277 O.2       8 UNK        -0.5275 
     54 N          29.1525   32.7202    3.5094 N.am      9 UNK        -0.4246 
     55 CA         30.0039   33.1451    2.3981 C.3       9 UNK         0.0261 
     56 CB         29.5606   32.3849    1.1366 C.3       9 UNK        -0.1959 
     57 C          31.4940   32.9057    2.7169 C.2       9 UNK         0.5033 
     58 O          32.3012   32.8001    1.7921 O.2       9 UNK        -0.5390 
     59 N          31.8357   32.7970    4.0125 N.am      10 UNK        -0.4215 
     60 CA         33.1638   32.5076    4.5735 C.3       10 UNK         0.0240 
     61 CB         34.1634   33.6372    4.2447 C.3       10 UNK        -0.1982 
     62 C          33.7168   31.1103    4.2198 C.2       10 UNK         0.4970 
     63 O          34.9112   30.8722    4.4049 O.2       10 UNK        -0.4916 
     64 N          32.8472   30.2068    3.7485 N.am      11 UNK        -0.4279 
     65 CA         33.1460   28.8222    3.3583 C.3       11 UNK         0.1003 
     66 C          34.1081   28.6683    2.1403 C.2       11 UNK         0.5709 
     67 N          34.2918   29.6941    1.3171 N.am      11 UNK        -0.7358 
     68 O          34.6778   27.6033    1.9185 O.2       11 UNK        -0.4999 
     69 C69        33.5103   27.9366    4.5898 C.3       12 UNK        -0.0954 
     70 S70        32.5754   26.3723    4.6052 S.3       12 UNK        -0.2268 
     71 C71        33.8696   25.1439    4.2558 C.3       12 UNK         0.0203 
     72 H72        26.7346   19.6759   -1.1997 H         1 UNK         0.0888 
     73 H73        27.3320   19.5424    0.4441 H         1 UNK         0.0888 
     74 H74        26.3181   20.9183   -0.0331 H         1 UNK         0.0888 
     75 H75        29.8416   22.2681   -0.2097 H         1 UNK         0.3017 
     76 H76        29.4589   22.7535    1.8625 H         1 UNK         0.0873 
     77 H77        29.4345   20.0378    1.9553 H         1 UNK         0.0745 
     78 H78        27.8589   20.3239    2.6186 H         1 UNK         0.0745 
     79 H79        31.4397   19.8819    3.1615 H         1 UNK         0.0705 
     80 H80        31.8056   20.5341    4.7327 H         1 UNK         0.0705 
     81 H81        32.5201   22.8973    5.0249 H         1 UNK         0.1334 
     82 H82        33.9516   24.9583    1.5489 H         1 UNK         0.1417 
     83 H83        31.8144   21.2597    1.1263 H         1 UNK         0.1562 
     84 H84        32.4335   22.4399   -0.8306 H         1 UNK         0.0748 
     85 H85        33.9941   23.2049   -0.6721 H         1 UNK         0.0748 
     86 H86        30.6727   24.2183    0.7565 H         1 UNK         0.0940 
     87 H87        29.8461   24.7825   -0.6533 H         1 UNK         0.0940 
     88 H88        31.5572   26.7483    0.9287 H         1 UNK         0.0703 
     89 H89        29.1705   26.9747   -0.8174 H         1 UNK         0.3081 
     90 H90        29.3061   30.4817   -0.9866 H         1 UNK         0.0719 
     91 H91        31.0937   29.9396   -2.6397 H         1 UNK         0.0809 
     92 H92        30.1855   28.5383   -3.1894 H         1 UNK         0.0809 
     93 H93        29.5453   30.1644   -3.4357 H         1 UNK         0.0809 
     94 H94        27.8185   28.4898   -2.4246 H         1 UNK         0.2990 
     95 H95        24.9685   28.8910   -0.5628 H         1 UNK         0.0690 
     96 H96        24.5219   27.5539   -2.5805 H         1 UNK         0.0788 
     97 H97        26.2329   27.2475   -2.8307 H         1 UNK         0.0788 
     98 H98        25.5900   28.8815   -2.9866 H         1 UNK         0.0788 
     99 H99        24.8092   26.9477    0.4840 H         1 UNK         0.2993 
    100 H100       25.8182   25.0797    1.7246 H         1 UNK         0.0949 
    101 H101       23.9132   24.6862    0.1115 H         1 UNK         0.0767 
    102 H102       24.9400   23.6412   -0.8620 H         1 UNK         0.0767 
    103 H103       24.4771   23.1617    0.7692 H         1 UNK         0.0767 
    104 H104       27.8179   23.9399    0.0303 H         1 UNK         0.3013 
    105 H105       29.9665   28.4275    2.1620 H         1 UNK         0.3121 
    106 H106       29.1180   26.9225    4.5009 H         1 UNK         0.0774 
    107 H107       26.9676   27.0977    3.1627 H         1 UNK         0.0815 
    108 H108       26.8962   28.0459    4.6392 H         1 UNK         0.0815 
    109 H109       27.1649   28.8476    3.0981 H         1 UNK         0.0815 
    110 H110       29.1024   28.2723    6.3555 H         1 UNK         0.2987 
    111 H111       31.1829   30.1147    6.4768 H         1 UNK         0.0949 
    112 H112       30.4127   28.7771    8.4110 H         1 UNK         0.0806 
    113 H113       30.3999   30.4814    8.8274 H         1 UNK         0.0806 
    114 H114       28.8876   29.6633    8.4601 H         1 UNK         0.0806 
    115 H115       27.7974   30.7812    5.8566 H         1 UNK         0.3010 
    116 H116       27.7398   33.5869    6.3210 H         1 UNK         0.0829 
    117 H117       25.6897   32.2134    6.0123 H         1 UNK         0.0813 
    118 H118       25.7327   33.5051    4.8251 H         1 UNK         0.0813 
    119 H119       26.1429   31.8651    4.3425 H         1 UNK         0.0813 
    120 H120       29.1991   31.7284    3.7289 H         1 UNK         0.3038 
    121 H121       29.8896   34.2147    2.2120 H         1 UNK         0.0769 
    122 H122       30.1550   32.6696    0.2676 H         1 UNK         0.0811 
    123 H123       28.5170   32.5882    0.8964 H         1 UNK         0.0811 
    124 H124       29.6658   31.3082    1.2715 H         1 UNK         0.0811 
    125 H125       31.1000   32.8881    4.7057 H         1 UNK         0.3204 
    126 H126       33.0281   32.5005    5.6560 H         1 UNK         0.0748 
    127 H127       35.0963   33.5084    4.7949 H         1 UNK         0.0771 
    128 H128       34.4148   33.6611    3.1840 H         1 UNK         0.0771 
    129 H129       33.7623   34.6135    4.5171 H         1 UNK         0.0771 
    130 H130       31.8740   30.4717    3.6392 H         1 UNK         0.2980 
    131 H131       32.1948   28.4711    2.9619 H         1 UNK         0.0545 
    132 H132       34.9024   29.5879    0.5236 H         1 UNK         0.3459 
    133 H133       33.7891   30.5574    1.4609 H         1 UNK         0.3459 
    134 H134       34.5843   27.7561    4.6586 H         1 UNK         0.0616 
    135 H135       33.2477   28.4452    5.5188 H         1 UNK         0.0616 
    136 H136       34.7194   25.6136    3.7591 H         1 UNK         0.0634 
    137 H137       34.2466   24.7393    5.1961 H         1 UNK         0.0634 
@<TRIPOS>BOND
     1    1    2 1    
     2    1   72 1    
     3    1   73 1    
     4    1   74 1    
     5    2    3 2    
     6    2    4 am   BACKBONE|DICT|INTERRES
     7    4    5 1    
     8    4   75 1    
     9    5    6 1    
    10    5   35 1    
    11    5   76 1    
    12    6    7 1    
    13    6   77 1    
    14    6   78 1    
    15    7    8 1    
    16    8    9 1    
    17    8   79 1    
    18    8   80 1    
    19    9   10 ar   
    20    9   14 ar   
    21   10   11 ar   
    22   10   81 1    
    23   11   12 ar   
    24   11   71 1    
    25   12   13 ar   
    26   12   82 1    
    27   13   14 ar   
    28   13   15 1    
    29   14   83 1    
    30   15   16 1    
    31   15   84 1    
    32   15   85 1    
    33   16   17 1    
    34   17   18 1    
    35   17   86 1    
    36   17   87 1    
    37   18   19 1    
    38   18   37 1    
    39   18   88 1    
    40   19   20 am   BACKBONE|DICT|INTERRES
    41   19   89 1    
    42   20   21 2    
    43   20   22 1    
    44   22   23 1    
    45   22   24 1    
    46   22   90 1    
    47   23   91 1    
    48   23   92 1    
    49   23   93 1    
    50   24   25 am   BACKBONE|DICT|INTERRES
    51   24   94 1    
    52   25   26 2    
    53   25   27 1    
    54   27   28 1    
    55   27   29 1    
    56   27   95 1    
    57   28   96 1    
    58   28   97 1    
    59   28   98 1    
    60   29   30 am   BACKBONE|DICT|INTERRES
    61   29   99 1    
    62   30   31 2    
    63   30   32 1    
    64   32   33 1    
    65   32   34 1    
    66   32  100 1    
    67   33  101 1    
    68   33  102 1    
    69   33  103 1    
    70   34   35 am   BACKBONE|DICT|INTERRES
    71   34  104 1    
    72   35   36 2    
    73   37   38 2    
    74   37   39 am   BACKBONE|DICT|INTERRES
    75   39   40 1    
    76   39  105 1    
    77   40   41 1    
    78   40   42 1    
    79   40  106 1    
    80   41  107 1    
    81   41  108 1    
    82   41  109 1    
    83   42   43 2    
    84   42   44 am   BACKBONE|DICT|INTERRES
    85   44   45 1    
    86   44  110 1    
    87   45   46 1    
    88   45   47 1    
    89   45  111 1    
    90   46  112 1    
    91   46  113 1    
    92   46  114 1    
    93   47   48 2    
    94   47   49 am   BACKBONE|DICT|INTERRES
    95   49   50 1    
    96   49  115 1    
    97   50   51 1    
    98   50   52 1    
    99   50  116 1    
   100   51  117 1    
   101   51  118 1    
   102   51  119 1    
   103   52   53 2    
   104   52   54 am   BACKBONE|DICT|INTERRES
   105   54   55 1    
   106   54  120 1    
   107   55   56 1    
   108   55   57 1    
   109   55  121 1    
   110   56  122 1    
   111   56  123 1    
   112   56  124 1    
   113   57   58 2    
   114   57   59 am   BACKBONE|DICT|INTERRES
   115   59   60 1    
   116   59  125 1    
   117   60   61 1    
   118   60   62 1    
   119   60  126 1    
   120   61  127 1    
   121   61  128 1    
   122   61  129 1    
   123   62   63 2    
   124   62   64 am   BACKBONE|DICT|INTERRES
   125   64   65 1    
   126   64  130 1    
   127   65   66 1    
   128   65   69 1    
   129   65  131 1    
   130   66   67 am   BACKBONE|DICT|INTERRES
   131   66   68 2    
   132   67  132 1    
   133   67  133 1    
   134   69   70 1    
   135   69  134 1    
   136   69  135 1    
   137   70   71 1    
   138   71  136 1    
   139   71  137 1    
@<TRIPOS>SUBSTRUCTURE
     1 UNK         1 GROUP             0       ****    0 ROOT    
