@<TRIPOS>MOLECULE
3R136
137   139    1
SMALL
USER_CHARGES


@<TRIPOS>ATOM
      1 CA         26.4710   17.9648    1.6269 C.3       0 UNK        -0.1979 
      2 C          26.4791   19.4759    1.8058 C.2       0 UNK         0.4864 
      3 O          25.6377   20.0066    2.5318 O.2       0 UNK        -0.5359 
      4 N          27.4213   20.1665    1.1452 N.am      1 UNK        -0.4318 
      5 CA         27.6121   21.6247    1.1746 C.3       1 UNK         0.0824 
      6 C6         28.0205   22.1453    2.5825 C.3       12 UNK        -0.0944 
      7 S7         29.0707   23.6353    2.5127 S.3       12 UNK        -0.2672 
      8 C8         30.7333   22.8956    2.5450 C.3       12 UNK         0.0333 
      9 C9         31.8018   23.9768    2.5219 C.ar      12 UNK        -0.0807 
     10 C10        32.4870   24.3223    3.6910 C.ar      12 UNK        -0.0894 
     11 C11        33.4383   25.3467    3.6749 C.ar      12 UNK        -0.0804 
     12 C12        33.7057   26.0234    2.4813 C.ar      12 UNK        -0.0824 
     13 C13        33.0122   25.7001    1.3124 C.ar      12 UNK        -0.0762 
     14 C14        32.0782   24.6593    1.3335 C.ar      12 UNK        -0.0782 
     15 C15        33.2246   26.5153    0.0428 C.3       12 UNK         0.0230 
     16 S16        32.6093   28.2267    0.2178 S.3       12 UNK        -0.2608 
     17 C17        30.9006   27.9682    0.8052 C.3       12 UNK        -0.0989 
     18 CA         29.8511   28.8126    0.0344 C.3       5 UNK         0.0716 
     19 N          28.5581   28.1220   -0.0441 N.am      5 UNK        -0.4135 
     20 C          27.7456   27.8235    0.9786 C.2       4 UNK         0.5031 
     21 O          27.9681   28.1629    2.1413 O.2       4 UNK        -0.5229 
     22 CA         26.4595   27.0304    0.6761 C.3       4 UNK         0.0329 
     23 CB         25.2487   27.9785    0.5753 C.3       4 UNK        -0.2001 
     24 N          26.5207   26.1185   -0.4787 N.am      4 UNK        -0.4303 
     25 C          26.6697   26.4104   -1.7819 C.2       3 UNK         0.5044 
     26 O          26.8330   27.5555   -2.2046 O.2       3 UNK        -0.5152 
     27 CA         26.6990   25.2437   -2.7895 C.3       3 UNK         0.0319 
     28 CB         28.1264   25.0433   -3.3264 C.3       3 UNK        -0.2001 
     29 N          26.2202   23.9730   -2.2420 N.am      3 UNK        -0.4354 
     30 C          24.9426   23.6874   -1.9523 C.2       2 UNK         0.4964 
     31 O          24.0003   24.4401   -2.2003 O.2       2 UNK        -0.5047 
     32 CA         24.6704   22.3463   -1.2431 C.3       2 UNK         0.0288 
     33 CB         24.1768   21.2950   -2.2506 C.3       2 UNK        -0.2113 
     34 N          25.8192   21.8022   -0.5055 N.am      2 UNK        -0.4145 
     35 C          26.4294   22.3947    0.5345 C.2       1 UNK         0.5006 
     36 O          26.1032   23.5062    0.9564 O.2       1 UNK        -0.5103 
     37 C          29.6888   30.2542    0.5709 C.2       5 UNK         0.5055 
     38 O          30.4337   30.6805    1.4568 O.2       5 UNK        -0.5220 
     39 N          28.6609   30.9515    0.0563 N.am      6 UNK        -0.4450 
     40 CA         28.1869   32.2772    0.4794 C.3       6 UNK         0.0367 
     41 CB         29.1906   33.3738    0.0668 C.3       6 UNK        -0.1929 
     42 C          27.8093   32.3245    1.9756 C.2       6 UNK         0.5070 
     43 O          28.1220   33.2977    2.6616 O.2       6 UNK        -0.5237 
     44 N          27.1508   31.2513    2.4406 N.am      7 UNK        -0.4739 
     45 CA         26.7948   30.9498    3.8318 C.3       7 UNK         0.0276 
     46 CB         25.8063   31.9907    4.4014 C.3       7 UNK        -0.1927 
     47 C          28.0464   30.7446    4.7067 C.2       7 UNK         0.5013 
     48 O          28.2026   31.4145    5.7297 O.2       7 UNK        -0.5193 
     49 N          28.9053   29.8079    4.2734 N.am      8 UNK        -0.4253 
     50 CA         30.1515   29.3705    4.9169 C.3       8 UNK         0.0242 
     51 CB         29.8323   28.6200    6.2290 C.3       8 UNK        -0.2000 
     52 C          31.1772   30.5078    5.1090 C.2       8 UNK         0.4948 
     53 O          31.8051   30.5993    6.1658 O.2       8 UNK        -0.5275 
     54 N          31.3273   31.3673    4.0914 N.am      9 UNK        -0.4246 
     55 CA         32.1781   32.5599    4.1469 C.3       9 UNK         0.0261 
     56 CB         31.7815   33.5256    3.0208 C.3       9 UNK        -0.1959 
     57 C          33.6800   32.2475    4.0642 C.2       9 UNK         0.5033 
     58 O          34.4772   32.9598    4.6761 O.2       9 UNK        -0.5390 
     59 N          34.0440   31.2115    3.2970 N.am      10 UNK        -0.4215 
     60 CA         35.4354   30.8259    3.0405 C.3       10 UNK         0.0240 
     61 CB         35.4990   30.0513    1.7141 C.3       10 UNK        -0.1982 
     62 C          36.0756   29.9981    4.1700 C.2       10 UNK         0.4970 
     63 O          37.2921   29.8046    4.1444 O.2       10 UNK        -0.4916 
     64 N          35.2636   29.4869    5.1029 N.am      11 UNK        -0.4279 
     65 CA         35.6888   28.5818    6.1799 C.3       11 UNK         0.1003 
     66 C          36.5853   29.2711    7.2447 C.2       11 UNK         0.5709 
     67 N          37.4700   28.5208    7.8879 N.am      11 UNK        -0.7358 
     68 O          36.4617   30.4629    7.5219 O.2       11 UNK        -0.4999 
     69 C69        34.4852   27.8621    6.8483 C.3       12 UNK        -0.0954 
     70 S70        33.2659   27.2017    5.6641 S.3       12 UNK        -0.2268 
     71 C71        34.1352   25.7747    4.9541 C.3       12 UNK         0.0203 
     72 H72        25.5190   17.6421    1.2062 H         1 UNK         0.0888 
     73 H73        27.2668   17.6270    0.9633 H         1 UNK         0.0888 
     74 H74        26.6022   17.4728    2.5903 H         1 UNK         0.0888 
     75 H75        28.0809   19.6590    0.5705 H         1 UNK         0.3017 
     76 H76        28.4555   21.7989    0.5044 H         1 UNK         0.0873 
     77 H77        27.1409   22.3579    3.1932 H         1 UNK         0.0745 
     78 H78        28.5687   21.3745    3.1266 H         1 UNK         0.0745 
     79 H79        30.8572   22.2352    1.6854 H         1 UNK         0.0705 
     80 H80        30.8381   22.2733    3.4353 H         1 UNK         0.0705 
     81 H81        32.2621   23.8136    4.6186 H         1 UNK         0.1334 
     82 H82        34.4182   26.8366    2.4742 H         1 UNK         0.1417 
     83 H83        31.5292   24.4076    0.4361 H         1 UNK         0.1562 
     84 H84        32.7288   26.0463   -0.8085 H         1 UNK         0.0748 
     85 H85        34.2884   26.5425   -0.1971 H         1 UNK         0.0748 
     86 H86        30.8549   28.1402    1.8816 H         1 UNK         0.0940 
     87 H87        30.6585   26.9136    0.6775 H         1 UNK         0.0940 
     88 H88        30.1851   28.9103   -0.9997 H         1 UNK         0.0703 
     89 H89        28.2267   27.8800   -0.9740 H         1 UNK         0.3081 
     90 H90        26.2974   26.3837    1.5401 H         1 UNK         0.0719 
     91 H91        24.3217   27.4208    0.4411 H         1 UNK         0.0809 
     92 H92        25.3425   28.6765   -0.2571 H         1 UNK         0.0809 
     93 H93        25.1398   28.5704    1.4851 H         1 UNK         0.0809 
     94 H94        26.4237   25.1395   -0.2271 H         1 UNK         0.2990 
     95 H95        26.0533   25.5213   -3.6254 H         1 UNK         0.0690 
     96 H96        28.1579   24.2668   -4.0910 H         1 UNK         0.0788 
     97 H97        28.8219   24.7642   -2.5336 H         1 UNK         0.0788 
     98 H98        28.5050   25.9585   -3.7841 H         1 UNK         0.0788 
     99 H99        26.9221   23.2819   -2.0224 H         1 UNK         0.2993 
    100 H100       23.8738   22.5272   -0.5180 H         1 UNK         0.0949 
    101 H101       24.9430   21.0508   -2.9877 H         1 UNK         0.0767 
    102 H102       23.8837   20.3717   -1.7501 H         1 UNK         0.0767 
    103 H103       23.3033   21.6559   -2.7958 H         1 UNK         0.0767 
    104 H104       26.1448   20.8894   -0.7891 H         1 UNK         0.3013 
    105 H105       28.1082   30.5027   -0.6613 H         1 UNK         0.3121 
    106 H106       27.2606   32.4631   -0.0665 H         1 UNK         0.0774 
    107 H107       28.8109   34.3668    0.3105 H         1 UNK         0.0815 
    108 H108       30.1469   33.2575    0.5735 H         1 UNK         0.0815 
    109 H109       29.3779   33.3546   -1.0066 H         1 UNK         0.0815 
    110 H110       26.9826   30.4997    1.7873 H         1 UNK         0.2987 
    111 H111       26.2775   29.9887    3.8147 H         1 UNK         0.0949 
    112 H112       26.2613   32.9762    4.5027 H         1 UNK         0.0806 
    113 H113       24.9258   32.0907    3.7669 H         1 UNK         0.0806 
    114 H114       25.4601   31.6934    5.3920 H         1 UNK         0.0806 
    115 H115       28.6557   29.3026    3.4241 H         1 UNK         0.3010 
    116 H116       30.6171   28.6568    4.2362 H         1 UNK         0.0829 
    117 H117       29.1585   27.7820    6.0509 H         1 UNK         0.0813 
    118 H118       30.7349   28.2149    6.6854 H         1 UNK         0.0813 
    119 H119       29.3680   29.2745    6.9671 H         1 UNK         0.0813 
    120 H120       30.8205   31.2007    3.2230 H         1 UNK         0.3038 
    121 H121       31.9959   33.0612    5.1001 H         1 UNK         0.0769 
    122 H122       31.9534   33.0847    2.0385 H         1 UNK         0.0811 
    123 H123       30.7303   33.8044    3.0883 H         1 UNK         0.0811 
    124 H124       32.3643   34.4463    3.0716 H         1 UNK         0.0811 
    125 H125       33.3226   30.6870    2.8213 H         1 UNK         0.3204 
    126 H126       36.0322   31.7337    2.9276 H         1 UNK         0.0748 
    127 H127       36.5310   29.8273    1.4405 H         1 UNK         0.0771 
    128 H128       34.9687   29.1017    1.7798 H         1 UNK         0.0771 
    129 H129       35.0650   30.6238    0.8940 H         1 UNK         0.0771 
    130 H130       34.2813   29.7163    5.0809 H         1 UNK         0.2980 
    131 H131       36.3044   27.8156    5.7056 H         1 UNK         0.0545 
    132 H132       37.5733   27.5396    7.6805 H         1 UNK         0.3459 
    133 H133       38.0509   28.9464    8.5933 H         1 UNK         0.3459 
    134 H134       34.8304   27.0460    7.4853 H         1 UNK         0.0616 
    135 H135       33.9488   28.5537    7.5011 H         1 UNK         0.0616 
    136 H136       34.1582   24.9609    5.6803 H         1 UNK         0.0634 
    137 H137       35.1716   26.0325    4.7351 H         1 UNK         0.0634 
@<TRIPOS>BOND
     1    1    2 1    
     2    1   72 1    
     3    1   73 1    
     4    1   74 1    
     5    2    3 2    
     6    2    4 am   BACKBONE|DICT|INTERRES
     7    4    5 1    
     8    4   75 1    
     9    5    6 1    
    10    5   35 1    
    11    5   76 1    
    12    6    7 1    
    13    6   77 1    
    14    6   78 1    
    15    7    8 1    
    16    8    9 1    
    17    8   79 1    
    18    8   80 1    
    19    9   10 ar   
    20    9   14 ar   
    21   10   11 ar   
    22   10   81 1    
    23   11   12 ar   
    24   11   71 1    
    25   12   13 ar   
    26   12   82 1    
    27   13   14 ar   
    28   13   15 1    
    29   14   83 1    
    30   15   16 1    
    31   15   84 1    
    32   15   85 1    
    33   16   17 1    
    34   17   18 1    
    35   17   86 1    
    36   17   87 1    
    37   18   19 1    
    38   18   37 1    
    39   18   88 1    
    40   19   20 am   BACKBONE|DICT|INTERRES
    41   19   89 1    
    42   20   21 2    
    43   20   22 1    
    44   22   23 1    
    45   22   24 1    
    46   22   90 1    
    47   23   91 1    
    48   23   92 1    
    49   23   93 1    
    50   24   25 am   BACKBONE|DICT|INTERRES
    51   24   94 1    
    52   25   26 2    
    53   25   27 1    
    54   27   28 1    
    55   27   29 1    
    56   27   95 1    
    57   28   96 1    
    58   28   97 1    
    59   28   98 1    
    60   29   30 am   BACKBONE|DICT|INTERRES
    61   29   99 1    
    62   30   31 2    
    63   30   32 1    
    64   32   33 1    
    65   32   34 1    
    66   32  100 1    
    67   33  101 1    
    68   33  102 1    
    69   33  103 1    
    70   34   35 am   BACKBONE|DICT|INTERRES
    71   34  104 1    
    72   35   36 2    
    73   37   38 2    
    74   37   39 am   BACKBONE|DICT|INTERRES
    75   39   40 1    
    76   39  105 1    
    77   40   41 1    
    78   40   42 1    
    79   40  106 1    
    80   41  107 1    
    81   41  108 1    
    82   41  109 1    
    83   42   43 2    
    84   42   44 am   BACKBONE|DICT|INTERRES
    85   44   45 1    
    86   44  110 1    
    87   45   46 1    
    88   45   47 1    
    89   45  111 1    
    90   46  112 1    
    91   46  113 1    
    92   46  114 1    
    93   47   48 2    
    94   47   49 am   BACKBONE|DICT|INTERRES
    95   49   50 1    
    96   49  115 1    
    97   50   51 1    
    98   50   52 1    
    99   50  116 1    
   100   51  117 1    
   101   51  118 1    
   102   51  119 1    
   103   52   53 2    
   104   52   54 am   BACKBONE|DICT|INTERRES
   105   54   55 1    
   106   54  120 1    
   107   55   56 1    
   108   55   57 1    
   109   55  121 1    
   110   56  122 1    
   111   56  123 1    
   112   56  124 1    
   113   57   58 2    
   114   57   59 am   BACKBONE|DICT|INTERRES
   115   59   60 1    
   116   59  125 1    
   117   60   61 1    
   118   60   62 1    
   119   60  126 1    
   120   61  127 1    
   121   61  128 1    
   122   61  129 1    
   123   62   63 2    
   124   62   64 am   BACKBONE|DICT|INTERRES
   125   64   65 1    
   126   64  130 1    
   127   65   66 1    
   128   65   69 1    
   129   65  131 1    
   130   66   67 am   BACKBONE|DICT|INTERRES
   131   66   68 2    
   132   67  132 1    
   133   67  133 1    
   134   69   70 1    
   135   69  134 1    
   136   69  135 1    
   137   70   71 1    
   138   71  136 1    
   139   71  137 1    
@<TRIPOS>SUBSTRUCTURE
     1 UNK         1 GROUP             0       ****    0 ROOT    
