@<TRIPOS>MOLECULE
3R136
137   139    1
SMALL
USER_CHARGES


@<TRIPOS>ATOM
      1 CA         25.3695   20.9709    3.3256 C.3       0 UNK        -0.1979 
      2 C          26.0373   22.0022    2.4290 C.2       0 UNK         0.4864 
      3 O          25.7162   22.0773    1.2420 O.2       0 UNK        -0.5359 
      4 N          26.9526   22.8065    2.9915 N.am      1 UNK        -0.4318 
      5 CA         27.7477   23.8325    2.2983 C.3       1 UNK         0.0824 
      6 C6         28.7034   24.5798    3.2594 C.3       12 UNK        -0.0944 
      7 S7         29.8323   23.4845    4.1844 S.3       12 UNK        -0.2672 
      8 C8         31.3888   23.6155    3.2417 C.3       12 UNK         0.0333 
      9 C9         31.8867   25.0492    3.0931 C.ar      12 UNK        -0.0807 
     10 C10        32.1556   25.8354    4.2199 C.ar      12 UNK        -0.0894 
     11 C11        32.6027   27.1539    4.0764 C.ar      12 UNK        -0.0804 
     12 C12        32.7621   27.6843    2.7937 C.ar      12 UNK        -0.0824 
     13 C13        32.5311   26.9010    1.6621 C.ar      12 UNK        -0.0762 
     14 C14        32.0879   25.5852    1.8169 C.ar      12 UNK        -0.0782 
     15 C15        32.7867   27.4755    0.2766 C.3       12 UNK         0.0230 
     16 S16        31.4466   28.5814   -0.2567 S.3       12 UNK        -0.2608 
     17 C17        30.0713   27.3959   -0.4327 C.3       12 UNK        -0.0989 
     18 CA         28.8481   27.9768   -1.1911 C.3       5 UNK         0.0716 
     19 N          28.0246   26.8895   -1.7152 N.am      5 UNK        -0.4135 
     20 C          28.0573   26.4254   -2.9678 C.2       4 UNK         0.5031 
     21 O          28.7255   26.9418   -3.8651 O.2       4 UNK        -0.5229 
     22 CA         27.2459   25.1609   -3.2963 C.3       4 UNK         0.0329 
     23 CB         28.1770   23.9381   -3.3727 C.3       4 UNK        -0.2001 
     24 N          26.1684   24.8714   -2.3418 N.am      4 UNK        -0.4303 
     25 C          24.9122   24.5595   -2.6984 C.2       3 UNK         0.5044 
     26 O          24.5096   24.5717   -3.8628 O.2       3 UNK        -0.5152 
     27 CA         23.9294   24.1283   -1.5920 C.3       3 UNK         0.0319 
     28 CB         23.7825   22.5981   -1.5770 C.3       3 UNK        -0.2001 
     29 N          24.3145   24.5822   -0.2560 N.am      3 UNK        -0.4354 
     30 C          24.2025   25.8486    0.1713 C.2       2 UNK         0.4964 
     31 O          23.6805   26.7439   -0.4938 O.2       2 UNK        -0.5047 
     32 CA         24.7659   26.1864    1.5658 C.3       2 UNK         0.0288 
     33 CB         23.6249   26.3669    2.5804 C.3       2 UNK        -0.2113 
     34 N          25.7236   25.2129    2.1010 N.am      2 UNK        -0.4145 
     35 C          26.8904   24.8644    1.5376 C.2       1 UNK         0.5006 
     36 O          27.2823   25.2965    0.4532 O.2       1 UNK        -0.5103 
     37 C          27.9889   28.8925   -0.2976 C.2       5 UNK         0.5055 
     38 O          26.8182   28.6023   -0.0432 O.2       5 UNK        -0.5220 
     39 N          28.6051   29.9794    0.1853 N.am      6 UNK        -0.4450 
     40 CA         28.0394   30.9162    1.1607 C.3       6 UNK         0.0367 
     41 CB         28.9188   32.1769    1.2102 C.3       6 UNK        -0.1929 
     42 C          27.8932   30.3169    2.5728 C.2       6 UNK         0.5070 
     43 O          27.1134   30.8458    3.3647 O.2       6 UNK        -0.5237 
     44 N          28.6457   29.2412    2.8593 N.am      7 UNK        -0.4739 
     45 CA         28.6593   28.4681    4.1095 C.3       7 UNK         0.0276 
     46 CB         27.2777   27.8316    4.3744 C.3       7 UNK        -0.1927 
     47 C          29.1836   29.2546    5.3275 C.2       7 UNK         0.5013 
     48 O          28.8436   28.9166    6.4627 O.2       7 UNK        -0.5193 
     49 N          30.0209   30.2689    5.0828 N.am      8 UNK        -0.4253 
     50 CA         30.6714   31.0878    6.0992 C.3       8 UNK         0.0242 
     51 CB         29.7349   32.2312    6.5292 C.3       8 UNK        -0.2000 
     52 C          31.9778   31.6410    5.5249 C.2       8 UNK         0.4948 
     53 O          32.0687   31.8431    4.3104 O.2       8 UNK        -0.5275 
     54 N          32.9483   31.8887    6.4153 N.am      9 UNK        -0.4246 
     55 CA         34.2663   32.5060    6.2041 C.3       9 UNK         0.0261 
     56 CB         34.1249   33.9724    5.7493 C.3       9 UNK        -0.1959 
     57 C          35.2207   31.7326    5.2762 C.2       9 UNK         0.5033 
     58 O          36.3243   31.3851    5.6965 O.2       9 UNK        -0.5390 
     59 N          34.7937   31.4763    4.0362 N.am      10 UNK        -0.4215 
     60 CA         35.5850   30.9119    2.9379 C.3       10 UNK         0.0240 
     61 CB         34.9290   31.3318    1.6079 C.3       10 UNK        -0.1982 
     62 C          35.7962   29.3849    3.0206 C.2       10 UNK         0.4970 
     63 O          35.8897   28.7353    1.9782 O.2       10 UNK        -0.4916 
     64 N          35.8420   28.8253    4.2367 N.am      11 UNK        -0.4279 
     65 CA         35.9817   27.3810    4.4852 C.3       11 UNK         0.1003 
     66 C          37.3810   26.8027    4.1129 C.2       11 UNK         0.5709 
     67 N          38.4191   27.6157    3.9511 N.am      11 UNK        -0.7358 
     68 O          37.5253   25.5913    3.9665 O.2       11 UNK        -0.4999 
     69 C69        35.6187   26.9955    5.9462 C.3       12 UNK        -0.0954 
     70 S70        33.9157   27.2519    6.5803 S.3       12 UNK        -0.2268 
     71 C71        32.8896   28.0324    5.2884 C.3       12 UNK         0.0203 
     72 H72        24.2922   21.1331    3.3455 H         1 UNK         0.0888 
     73 H73        25.5563   19.9674    2.9443 H         1 UNK         0.0888 
     74 H74        25.7396   21.0193    4.3495 H         1 UNK         0.0888 
     75 H75        27.1821   22.6801    3.9675 H         1 UNK         0.3017 
     76 H76        28.3522   23.3136    1.5514 H         1 UNK         0.0873 
     77 H77        28.1280   25.1308    4.0038 H         1 UNK         0.0745 
     78 H78        29.2800   25.3302    2.7168 H         1 UNK         0.0745 
     79 H79        31.2404   23.1516    2.2653 H         1 UNK         0.0705 
     80 H80        32.1556   23.0269    3.7470 H         1 UNK         0.0705 
     81 H81        32.0098   25.4212    5.2082 H         1 UNK         0.1334 
     82 H82        33.0836   28.7079    2.6677 H         1 UNK         0.1417 
     83 H83        31.8999   24.9787    0.9414 H         1 UNK         0.1562 
     84 H84        32.9186   26.6792   -0.4576 H         1 UNK         0.0748 
     85 H85        33.7225   28.0368    0.2853 H         1 UNK         0.0748 
     86 H86        29.7828   27.0124    0.5484 H         1 UNK         0.0940 
     87 H87        30.4634   26.5363   -0.9795 H         1 UNK         0.0940 
     88 H88        29.1987   28.5926   -2.0223 H         1 UNK         0.0703 
     89 H89        27.4608   26.4236   -1.0097 H         1 UNK         0.3081 
     90 H90        26.8300   25.3286   -4.2919 H         1 UNK         0.0719 
     91 H91        28.9914   24.1067   -4.0789 H         1 UNK         0.0809 
     92 H92        28.6248   23.7131   -2.4038 H         1 UNK         0.0809 
     93 H93        27.6387   23.0512   -3.7074 H         1 UNK         0.0809 
     94 H94        26.4179   24.8447   -1.3593 H         1 UNK         0.2990 
     95 H95        22.9549   24.5585   -1.8334 H         1 UNK         0.0690 
     96 H96        23.0542   22.2755   -0.8327 H         1 UNK         0.0788 
     97 H97        24.7297   22.1048   -1.3545 H         1 UNK         0.0788 
     98 H98        23.4420   22.2283   -2.5452 H         1 UNK         0.0788 
     99 H99        24.7519   23.8949    0.3477 H         1 UNK         0.2993 
    100 H100       25.2897   27.1391    1.4718 H         1 UNK         0.0949 
    101 H101       22.9060   27.1103    2.2325 H         1 UNK         0.0767 
    102 H102       23.0793   25.4365    2.7432 H         1 UNK         0.0767 
    103 H103       24.0011   26.7117    3.5440 H         1 UNK         0.0767 
    104 H104       25.4761   24.7758    2.9768 H         1 UNK         0.3013 
    105 H105       29.5746   30.1209   -0.0692 H         1 UNK         0.3121 
    106 H106       27.0417   31.2016    0.8203 H         1 UNK         0.0774 
    107 H107       28.5087   32.9112    1.9052 H         1 UNK         0.0815 
    108 H108       29.9341   31.9506    1.5395 H         1 UNK         0.0815 
    109 H109       28.9803   32.6578    0.2339 H         1 UNK         0.0815 
    110 H110       29.2723   28.9140    2.1379 H         1 UNK         0.2987 
    111 H111       29.3719   27.6561    3.9543 H         1 UNK         0.0949 
    112 H112       27.3269   27.1087    5.1893 H         1 UNK         0.0806 
    113 H113       26.9086   27.3098    3.4938 H         1 UNK         0.0806 
    114 H114       26.5338   28.5784    4.6532 H         1 UNK         0.0806 
    115 H115       30.2879   30.4839    4.1306 H         1 UNK         0.3010 
    116 H116       30.9091   30.4650    6.9648 H         1 UNK         0.0829 
    117 H117       29.4646   32.8665    5.6846 H         1 UNK         0.0813 
    118 H118       28.8126   31.8465    6.9649 H         1 UNK         0.0813 
    119 H119       30.2067   32.8665    7.2799 H         1 UNK         0.0813 
    120 H120       32.7567   31.6502    7.3792 H         1 UNK         0.3038 
    121 H121       34.7413   32.5207    7.1866 H         1 UNK         0.0769 
    122 H122       35.1023   34.4476    5.6547 H         1 UNK         0.0811 
    123 H123       33.5513   34.5556    6.4696 H         1 UNK         0.0811 
    124 H124       33.6288   34.0576    4.7819 H         1 UNK         0.0811 
    125 H125       33.8244   31.7188    3.8336 H         1 UNK         0.3204 
    126 H126       36.5791   31.3622    2.9738 H         1 UNK         0.0748 
    127 H127       35.5320   31.0237    0.7526 H         1 UNK         0.0771 
    128 H128       33.9402   30.8862    1.4888 H         1 UNK         0.0771 
    129 H129       34.8177   32.4145    1.5446 H         1 UNK         0.0771 
    130 H130       35.8363   29.4334    5.0458 H         1 UNK         0.2980 
    131 H131       35.2834   26.8653    3.8261 H         1 UNK         0.0545 
    132 H132       38.3139   28.6099    4.0735 H         1 UNK         0.3459 
    133 H133       39.3168   27.2278    3.7076 H         1 UNK         0.3459 
    134 H134       35.8165   25.9329    6.1007 H         1 UNK         0.0616 
    135 H135       36.2921   27.5136    6.6314 H         1 UNK         0.0616 
    136 H136       31.9338   28.2760    5.7494 H         1 UNK         0.0634 
    137 H137       33.3295   28.9853    4.9989 H         1 UNK         0.0634 
@<TRIPOS>BOND
     1    1    2 1    
     2    1   72 1    
     3    1   73 1    
     4    1   74 1    
     5    2    3 2    
     6    2    4 am   BACKBONE|DICT|INTERRES
     7    4    5 1    
     8    4   75 1    
     9    5    6 1    
    10    5   35 1    
    11    5   76 1    
    12    6    7 1    
    13    6   77 1    
    14    6   78 1    
    15    7    8 1    
    16    8    9 1    
    17    8   79 1    
    18    8   80 1    
    19    9   10 ar   
    20    9   14 ar   
    21   10   11 ar   
    22   10   81 1    
    23   11   12 ar   
    24   11   71 1    
    25   12   13 ar   
    26   12   82 1    
    27   13   14 ar   
    28   13   15 1    
    29   14   83 1    
    30   15   16 1    
    31   15   84 1    
    32   15   85 1    
    33   16   17 1    
    34   17   18 1    
    35   17   86 1    
    36   17   87 1    
    37   18   19 1    
    38   18   37 1    
    39   18   88 1    
    40   19   20 am   BACKBONE|DICT|INTERRES
    41   19   89 1    
    42   20   21 2    
    43   20   22 1    
    44   22   23 1    
    45   22   24 1    
    46   22   90 1    
    47   23   91 1    
    48   23   92 1    
    49   23   93 1    
    50   24   25 am   BACKBONE|DICT|INTERRES
    51   24   94 1    
    52   25   26 2    
    53   25   27 1    
    54   27   28 1    
    55   27   29 1    
    56   27   95 1    
    57   28   96 1    
    58   28   97 1    
    59   28   98 1    
    60   29   30 am   BACKBONE|DICT|INTERRES
    61   29   99 1    
    62   30   31 2    
    63   30   32 1    
    64   32   33 1    
    65   32   34 1    
    66   32  100 1    
    67   33  101 1    
    68   33  102 1    
    69   33  103 1    
    70   34   35 am   BACKBONE|DICT|INTERRES
    71   34  104 1    
    72   35   36 2    
    73   37   38 2    
    74   37   39 am   BACKBONE|DICT|INTERRES
    75   39   40 1    
    76   39  105 1    
    77   40   41 1    
    78   40   42 1    
    79   40  106 1    
    80   41  107 1    
    81   41  108 1    
    82   41  109 1    
    83   42   43 2    
    84   42   44 am   BACKBONE|DICT|INTERRES
    85   44   45 1    
    86   44  110 1    
    87   45   46 1    
    88   45   47 1    
    89   45  111 1    
    90   46  112 1    
    91   46  113 1    
    92   46  114 1    
    93   47   48 2    
    94   47   49 am   BACKBONE|DICT|INTERRES
    95   49   50 1    
    96   49  115 1    
    97   50   51 1    
    98   50   52 1    
    99   50  116 1    
   100   51  117 1    
   101   51  118 1    
   102   51  119 1    
   103   52   53 2    
   104   52   54 am   BACKBONE|DICT|INTERRES
   105   54   55 1    
   106   54  120 1    
   107   55   56 1    
   108   55   57 1    
   109   55  121 1    
   110   56  122 1    
   111   56  123 1    
   112   56  124 1    
   113   57   58 2    
   114   57   59 am   BACKBONE|DICT|INTERRES
   115   59   60 1    
   116   59  125 1    
   117   60   61 1    
   118   60   62 1    
   119   60  126 1    
   120   61  127 1    
   121   61  128 1    
   122   61  129 1    
   123   62   63 2    
   124   62   64 am   BACKBONE|DICT|INTERRES
   125   64   65 1    
   126   64  130 1    
   127   65   66 1    
   128   65   69 1    
   129   65  131 1    
   130   66   67 am   BACKBONE|DICT|INTERRES
   131   66   68 2    
   132   67  132 1    
   133   67  133 1    
   134   69   70 1    
   135   69  134 1    
   136   69  135 1    
   137   70   71 1    
   138   71  136 1    
   139   71  137 1    
@<TRIPOS>SUBSTRUCTURE
     1 UNK         1 GROUP             0       ****    0 ROOT    
