@<TRIPOS>MOLECULE
3R136
137   139    1
SMALL
USER_CHARGES


@<TRIPOS>ATOM
      1 CA         27.3567   28.9262   -0.8849 C.3       0 UNK        -0.1979 
      2 C          27.6732   27.5097   -0.4320 C.2       0 UNK         0.4864 
      3 O          26.9073   26.9320    0.3419 O.2       0 UNK        -0.5359 
      4 N          28.7986   26.9557   -0.9052 N.am      1 UNK        -0.4318 
      5 CA         29.3161   25.6160   -0.5990 C.3       1 UNK         0.0824 
      6 C6         30.6984   25.4038   -1.2828 C.3       12 UNK        -0.0944 
      7 S7         31.3356   23.6900   -1.3258 S.3       12 UNK        -0.2672 
      8 C8         32.6070   23.7236   -0.0269 C.3       12 UNK         0.0333 
      9 C9         32.0036   23.8429    1.3646 C.ar      12 UNK        -0.0807 
     10 C10        32.2300   24.9870    2.1360 C.ar      12 UNK        -0.0894 
     11 C11        31.7238   25.0741    3.4355 C.ar      12 UNK        -0.0804 
     12 C12        30.9862   24.0106    3.9602 C.ar      12 UNK        -0.0824 
     13 C13        30.7199   22.8772    3.1859 C.ar      12 UNK        -0.0762 
     14 C14        31.2407   22.7950    1.8914 C.ar      12 UNK        -0.0782 
     15 C15        29.8698   21.7443    3.7471 C.3       12 UNK         0.0230 
     16 S16        28.1078   21.9277    3.3076 S.3       12 UNK        -0.2608 
     17 C17        27.6757   23.4640    4.1907 C.3       12 UNK        -0.0989 
     18 CA         27.6547   24.6838    3.2204 C.3       5 UNK         0.0716 
     19 N          26.3948   24.8022    2.4702 N.am      5 UNK        -0.4135 
     20 C          25.2058   25.1365    2.9976 C.2       4 UNK         0.5031 
     21 O          25.0237   25.2848    4.2076 O.2       4 UNK        -0.5229 
     22 CA         24.0101   25.3570    2.0555 C.3       4 UNK         0.0329 
     23 CB         23.1779   26.5868    2.4822 C.3       4 UNK        -0.2001 
     24 N          24.3748   25.4877    0.6413 N.am      4 UNK        -0.4303 
     25 C          23.5269   25.2020   -0.3588 C.2       3 UNK         0.5044 
     26 O          22.4228   24.6798   -0.1957 O.2       3 UNK        -0.5152 
     27 CA         23.9581   25.5885   -1.7811 C.3       3 UNK         0.0319 
     28 CB         23.9287   27.1147   -1.9649 C.3       3 UNK        -0.2001 
     29 N          25.2780   25.0677   -2.1272 N.am      3 UNK        -0.4354 
     30 C          25.5393   23.7793   -2.3922 C.2       2 UNK         0.4964 
     31 O          24.6865   22.8908   -2.3874 O.2       2 UNK        -0.5047 
     32 CA         26.9934   23.4157   -2.7430 C.3       2 UNK         0.0288 
     33 CB         27.1641   23.2827   -4.2653 C.3       2 UNK        -0.2113 
     34 N          27.9769   24.3745   -2.2336 N.am      2 UNK        -0.4145 
     35 C          28.2728   24.5294   -0.9356 C.2       1 UNK         0.5006 
     36 O          27.7253   23.9001   -0.0293 O.2       1 UNK        -0.5103 
     37 C          28.0400   26.0282    3.8824 C.2       5 UNK         0.5055 
     38 O          28.3490   26.0771    5.0752 O.2       5 UNK        -0.5220 
     39 N          27.9896   27.1013    3.0854 N.am      6 UNK        -0.4450 
     40 CA         28.2917   28.4747    3.4822 C.3       6 UNK         0.0367 
     41 CB         26.9722   29.2735    3.4727 C.3       6 UNK        -0.1929 
     42 C          29.3583   29.0750    2.5473 C.2       6 UNK         0.5070 
     43 O          30.0400   28.3351    1.8349 O.2       6 UNK        -0.5237 
     44 N          29.4676   30.4113    2.5622 N.am      7 UNK        -0.4739 
     45 CA         30.3805   31.2452    1.7690 C.3       7 UNK         0.0276 
     46 CB         30.0890   31.1044    0.2570 C.3       7 UNK        -0.1927 
     47 C          31.8634   31.0451    2.1439 C.2       7 UNK         0.5013 
     48 O          32.1568   30.6715    3.2825 O.2       7 UNK        -0.5193 
     49 N          32.7681   31.3710    1.2046 N.am      8 UNK        -0.4253 
     50 CA         34.2328   31.3934    1.3417 C.3       8 UNK         0.0242 
     51 CB         34.7955   29.9584    1.3980 C.3       8 UNK        -0.2000 
     52 C          34.6898   32.2735    2.5214 C.2       8 UNK         0.4948 
     53 O          35.4380   31.8146    3.3885 O.2       8 UNK        -0.5275 
     54 N          34.1566   33.5044    2.5632 N.am      9 UNK        -0.4246 
     55 CA         34.2390   34.5065    3.6358 C.3       9 UNK         0.0261 
     56 CB         35.6920   34.9476    3.9081 C.3       9 UNK        -0.1959 
     57 C          33.5212   34.0657    4.9245 C.2       9 UNK         0.5033 
     58 O          32.5731   34.7286    5.3472 O.2       9 UNK        -0.5390 
     59 N          33.9706   32.9487    5.5010 N.am      10 UNK        -0.4215 
     60 CA         33.4133   32.2816    6.6741 C.3       10 UNK         0.0240 
     61 CB         33.7543   33.0664    7.9596 C.3       10 UNK        -0.1982 
     62 C          33.9209   30.8314    6.6987 C.2       10 UNK         0.4970 
     63 O          34.4737   30.3917    7.7085 O.2       10 UNK        -0.4916 
     64 N          33.7566   30.1261    5.5712 N.am      11 UNK        -0.4279 
     65 CA         34.2599   28.7665    5.3302 C.3       11 UNK         0.1003 
     66 C          35.8156   28.6525    5.3731 C.2       11 UNK         0.5709 
     67 N          36.5416   29.6224    4.8300 N.am      11 UNK        -0.7358 
     68 O          36.3781   27.6910    5.8924 O.2       11 UNK        -0.4999 
     69 C69        33.4989   27.7036    6.1731 C.3       12 UNK        -0.0954 
     70 S70        33.4300   26.0844    5.3402 S.3       12 UNK        -0.2268 
     71 C71        31.9730   26.3130    4.2785 C.3       12 UNK         0.0203 
     72 H72        27.1314   29.5531   -0.0229 H         1 UNK         0.0888 
     73 H73        28.1914   29.3756   -1.4218 H         1 UNK         0.0888 
     74 H74        26.4920   28.9315   -1.5462 H         1 UNK         0.0888 
     75 H75        29.3790   27.5060   -1.5214 H         1 UNK         0.3017 
     76 H76        29.4771   25.5739    0.4804 H         1 UNK         0.0873 
     77 H77        30.6515   25.7348   -2.3217 H         1 UNK         0.0745 
     78 H78        31.4388   26.0502   -0.8085 H         1 UNK         0.0745 
     79 H79        33.3077   24.5362   -0.2255 H         1 UNK         0.0705 
     80 H80        33.1876   22.8017   -0.0820 H         1 UNK         0.0705 
     81 H81        32.8113   25.8053    1.7331 H         1 UNK         0.1334 
     82 H82        30.6067   24.0794    4.9703 H         1 UNK         0.1417 
     83 H83        31.0492   21.9167    1.2896 H         1 UNK         0.1562 
     84 H84        29.9722   21.6909    4.8322 H         1 UNK         0.0748 
     85 H85        30.2299   20.7886    3.3633 H         1 UNK         0.0748 
     86 H86        28.3824   23.5919    5.0098 H         1 UNK         0.0940 
     87 H87        26.7103   23.3278    4.6788 H         1 UNK         0.0940 
     88 H88        28.4332   24.5289    2.4727 H         1 UNK         0.0703 
     89 H89        26.4832   24.6572    1.4704 H         1 UNK         0.3081 
     90 H90        23.3888   24.4669    2.1754 H         1 UNK         0.0719 
     91 H91        23.7594   27.5061    2.4026 H         1 UNK         0.0809 
     92 H92        22.2847   26.7015    1.8681 H         1 UNK         0.0809 
     93 H93        22.8394   26.5016    3.5156 H         1 UNK         0.0809 
     94 H94        25.2598   25.9480    0.4374 H         1 UNK         0.2990 
     95 H95        23.2352   25.1585   -2.4781 H         1 UNK         0.0690 
     96 H96        24.2322   27.4030   -2.9715 H         1 UNK         0.0788 
     97 H97        24.5803   27.6224   -1.2547 H         1 UNK         0.0788 
     98 H98        22.9210   27.5018   -1.8079 H         1 UNK         0.0788 
     99 H99        26.0428   25.7248   -2.1429 H         1 UNK         0.2993 
    100 H100       27.2020   22.4446   -2.2879 H         1 UNK         0.0949 
    101 H101       26.9813   24.2286   -4.7770 H         1 UNK         0.0767 
    102 H102       28.1689   22.9478   -4.5241 H         1 UNK         0.0767 
    103 H103       26.4658   22.5508   -4.6739 H         1 UNK         0.0767 
    104 H104       28.4667   24.9345   -2.9161 H         1 UNK         0.3013 
    105 H105       27.7389   26.9748    2.1082 H         1 UNK         0.3121 
    106 H106       28.7098   28.4969    4.4905 H         1 UNK         0.0774 
    107 H107       27.1012   30.2761    3.8807 H         1 UNK         0.0815 
    108 H108       26.5692   29.3731    2.4641 H         1 UNK         0.0815 
    109 H109       26.2132   28.7823    4.0824 H         1 UNK         0.0815 
    110 H110       28.8891   30.9186    3.2167 H         1 UNK         0.2987 
    111 H111       30.1510   32.2750    2.0471 H         1 UNK         0.0949 
    112 H112       30.6083   31.8641   -0.3277 H         1 UNK         0.0806 
    113 H113       30.3879   30.1284   -0.1270 H         1 UNK         0.0806 
    114 H114       29.0266   31.2342    0.0535 H         1 UNK         0.0806 
    115 H115       32.4141   31.6724    0.3074 H         1 UNK         0.3010 
    116 H116       34.6292   31.8649    0.4410 H         1 UNK         0.0829 
    117 H117       34.5386   29.3991    0.4985 H         1 UNK         0.0813 
    118 H118       35.8835   29.9638    1.4763 H         1 UNK         0.0813 
    119 H119       34.4093   29.4057    2.2515 H         1 UNK         0.0813 
    120 H120       33.5324   33.7527    1.8081 H         1 UNK         0.3038 
    121 H121       33.7029   35.3814    3.2638 H         1 UNK         0.0769 
    122 H122       35.7205   35.7468    4.6498 H         1 UNK         0.0811 
    123 H123       36.1639   35.3297    3.0030 H         1 UNK         0.0811 
    124 H124       36.3109   34.1346    4.2880 H         1 UNK         0.0811 
    125 H125       34.7116   32.4507    5.0106 H         1 UNK         0.3204 
    126 H126       32.3274   32.2378    6.5680 H         1 UNK         0.0748 
    127 H127       33.3476   32.5696    8.8413 H         1 UNK         0.0771 
    128 H128       34.8322   33.1556    8.1000 H         1 UNK         0.0771 
    129 H129       33.3356   34.0724    7.9388 H         1 UNK         0.0771 
    130 H130       33.2592   30.5396    4.7847 H         1 UNK         0.2980 
    131 H131       34.0048   28.5790    4.2891 H         1 UNK         0.0545 
    132 H132       36.1010   30.4078    4.3566 H         1 UNK         0.3459 
    133 H133       37.5459   29.5560    4.8570 H         1 UNK         0.3459 
    134 H134       32.4729   28.0256    6.3591 H         1 UNK         0.0616 
    135 H135       33.9543   27.5836    7.1575 H         1 UNK         0.0616 
    136 H136       32.1147   27.1841    3.6364 H         1 UNK         0.0634 
    137 H137       31.1007   26.5258    4.8980 H         1 UNK         0.0634 
@<TRIPOS>BOND
     1    1    2 1    
     2    1   72 1    
     3    1   73 1    
     4    1   74 1    
     5    2    3 2    
     6    2    4 am   BACKBONE|DICT|INTERRES
     7    4    5 1    
     8    4   75 1    
     9    5    6 1    
    10    5   35 1    
    11    5   76 1    
    12    6    7 1    
    13    6   77 1    
    14    6   78 1    
    15    7    8 1    
    16    8    9 1    
    17    8   79 1    
    18    8   80 1    
    19    9   10 ar   
    20    9   14 ar   
    21   10   11 ar   
    22   10   81 1    
    23   11   12 ar   
    24   11   71 1    
    25   12   13 ar   
    26   12   82 1    
    27   13   14 ar   
    28   13   15 1    
    29   14   83 1    
    30   15   16 1    
    31   15   84 1    
    32   15   85 1    
    33   16   17 1    
    34   17   18 1    
    35   17   86 1    
    36   17   87 1    
    37   18   19 1    
    38   18   37 1    
    39   18   88 1    
    40   19   20 am   BACKBONE|DICT|INTERRES
    41   19   89 1    
    42   20   21 2    
    43   20   22 1    
    44   22   23 1    
    45   22   24 1    
    46   22   90 1    
    47   23   91 1    
    48   23   92 1    
    49   23   93 1    
    50   24   25 am   BACKBONE|DICT|INTERRES
    51   24   94 1    
    52   25   26 2    
    53   25   27 1    
    54   27   28 1    
    55   27   29 1    
    56   27   95 1    
    57   28   96 1    
    58   28   97 1    
    59   28   98 1    
    60   29   30 am   BACKBONE|DICT|INTERRES
    61   29   99 1    
    62   30   31 2    
    63   30   32 1    
    64   32   33 1    
    65   32   34 1    
    66   32  100 1    
    67   33  101 1    
    68   33  102 1    
    69   33  103 1    
    70   34   35 am   BACKBONE|DICT|INTERRES
    71   34  104 1    
    72   35   36 2    
    73   37   38 2    
    74   37   39 am   BACKBONE|DICT|INTERRES
    75   39   40 1    
    76   39  105 1    
    77   40   41 1    
    78   40   42 1    
    79   40  106 1    
    80   41  107 1    
    81   41  108 1    
    82   41  109 1    
    83   42   43 2    
    84   42   44 am   BACKBONE|DICT|INTERRES
    85   44   45 1    
    86   44  110 1    
    87   45   46 1    
    88   45   47 1    
    89   45  111 1    
    90   46  112 1    
    91   46  113 1    
    92   46  114 1    
    93   47   48 2    
    94   47   49 am   BACKBONE|DICT|INTERRES
    95   49   50 1    
    96   49  115 1    
    97   50   51 1    
    98   50   52 1    
    99   50  116 1    
   100   51  117 1    
   101   51  118 1    
   102   51  119 1    
   103   52   53 2    
   104   52   54 am   BACKBONE|DICT|INTERRES
   105   54   55 1    
   106   54  120 1    
   107   55   56 1    
   108   55   57 1    
   109   55  121 1    
   110   56  122 1    
   111   56  123 1    
   112   56  124 1    
   113   57   58 2    
   114   57   59 am   BACKBONE|DICT|INTERRES
   115   59   60 1    
   116   59  125 1    
   117   60   61 1    
   118   60   62 1    
   119   60  126 1    
   120   61  127 1    
   121   61  128 1    
   122   61  129 1    
   123   62   63 2    
   124   62   64 am   BACKBONE|DICT|INTERRES
   125   64   65 1    
   126   64  130 1    
   127   65   66 1    
   128   65   69 1    
   129   65  131 1    
   130   66   67 am   BACKBONE|DICT|INTERRES
   131   66   68 2    
   132   67  132 1    
   133   67  133 1    
   134   69   70 1    
   135   69  134 1    
   136   69  135 1    
   137   70   71 1    
   138   71  136 1    
   139   71  137 1    
@<TRIPOS>SUBSTRUCTURE
     1 UNK         1 GROUP             0       ****    0 ROOT    
