@<TRIPOS>MOLECULE
3R136
137   139    1
SMALL
USER_CHARGES


@<TRIPOS>ATOM
      1 CA         30.3878   24.0682    8.1603 C.3       0 UNK        -0.1979 
      2 C          29.9544   23.8423    6.7194 C.2       0 UNK         0.4864 
      3 O          29.9542   22.7005    6.2569 O.2       0 UNK        -0.5359 
      4 N          29.5872   24.9139    6.0091 N.am      1 UNK        -0.4318 
      5 CA         29.1325   24.8831    4.6197 C.3       1 UNK         0.0824 
      6 C6         30.3247   24.9597    3.6328 C.3       12 UNK        -0.0944 
      7 S7         29.9000   24.3737    1.9562 S.3       12 UNK        -0.2672 
      8 C8         31.5358   23.9024    1.3041 C.3       12 UNK         0.0333 
      9 C9         32.3392   25.1198    0.8689 C.ar      12 UNK        -0.0807 
     10 C10        33.0199   25.8875    1.8170 C.ar      12 UNK        -0.0894 
     11 C11        33.7212   27.0331    1.4339 C.ar      12 UNK        -0.0804 
     12 C12        33.7665   27.3945    0.0854 C.ar      12 UNK        -0.0824 
     13 C13        33.1106   26.6229   -0.8789 C.ar      12 UNK        -0.0762 
     14 C14        32.3973   25.4860   -0.4799 C.ar      12 UNK        -0.0782 
     15 C15        33.1887   27.0208   -2.3486 C.3       12 UNK         0.0230 
     16 S16        31.5567   27.1640   -3.1461 S.3       12 UNK        -0.2608 
     17 C17        30.7806   28.5099   -2.1884 C.3       12 UNK        -0.0989 
     18 CA         29.2547   28.6295   -2.4572 C.3       5 UNK         0.0716 
     19 N          28.5118   27.4254   -2.0803 N.am      5 UNK        -0.4135 
     20 C          28.0354   26.5080   -2.9300 C.2       4 UNK         0.5031 
     21 O          28.2375   26.5086   -4.1451 O.2       4 UNK        -0.5229 
     22 CA         27.1262   25.4278   -2.3191 C.3       4 UNK         0.0329 
     23 CB         27.9718   24.3074   -1.6913 C.3       4 UNK        -0.2001 
     24 N          26.1753   25.9365   -1.3222 N.am      4 UNK        -0.4303 
     25 C          25.3071   26.9454   -1.4860 C.2       3 UNK         0.5044 
     26 O          25.2388   27.6371   -2.5026 O.2       3 UNK        -0.5152 
     27 CA         24.3782   27.2764   -0.3071 C.3       3 UNK         0.0319 
     28 CB         23.1674   26.3241   -0.2593 C.3       3 UNK        -0.2001 
     29 N          25.0595   27.3659    0.9906 N.am      3 UNK        -0.4354 
     30 C          25.6109   26.3930    1.7256 C.2       2 UNK         0.4964 
     31 O          25.6646   25.2074    1.3865 O.2       2 UNK        -0.5047 
     32 CA         26.1958   26.8250    3.0723 C.3       2 UNK         0.0288 
     33 CB         25.0855   26.9654    4.1319 C.3       2 UNK        -0.2113 
     34 N          27.1789   25.8324    3.4912 N.am      2 UNK        -0.4145 
     35 C          28.1328   26.0314    4.4044 C.2       1 UNK         0.5006 
     36 O          28.2577   27.0826    5.0361 O.2       1 UNK        -0.5103 
     37 C          28.6060   29.8363   -1.7486 C.2       5 UNK         0.5055 
     38 O          29.3171   30.6747   -1.1924 O.2       5 UNK        -0.5220 
     39 N          27.2619   29.8882   -1.7626 N.am      6 UNK        -0.4450 
     40 CA         26.4057   30.8808   -1.1001 C.3       6 UNK         0.0367 
     41 CB         26.5528   32.2668   -1.7692 C.3       6 UNK        -0.1929 
     42 C          26.6235   30.8819    0.4265 C.2       6 UNK         0.5070 
     43 O          26.5402   29.8169    1.0430 O.2       6 UNK        -0.5237 
     44 N          26.9136   32.0463    1.0214 N.am      7 UNK        -0.4739 
     45 CA         27.2600   32.2122    2.4372 C.3       7 UNK         0.0276 
     46 CB         27.0139   33.6775    2.8422 C.3       7 UNK        -0.1927 
     47 C          28.7064   31.7524    2.7159 C.2       7 UNK         0.5013 
     48 O          29.5574   32.5627    3.0869 O.2       7 UNK        -0.5193 
     49 N          28.9571   30.4581    2.4865 N.am      8 UNK        -0.4253 
     50 CA         30.2673   29.8094    2.5581 C.3       8 UNK         0.0242 
     51 CB         30.1479   28.4097    1.9391 C.3       8 UNK        -0.2000 
     52 C          30.8611   29.7366    3.9769 C.2       8 UNK         0.4948 
     53 O          32.0843   29.7608    4.1146 O.2       8 UNK        -0.5275 
     54 N          29.9918   29.6611    4.9952 N.am      9 UNK        -0.4246 
     55 CA         30.2783   29.5672    6.4309 C.3       9 UNK         0.0261 
     56 CB         31.0386   30.8054    6.9525 C.3       9 UNK        -0.1959 
     57 C          30.9608   28.2445    6.8152 C.2       9 UNK         0.5033 
     58 O          30.2934   27.3641    7.3581 O.2       9 UNK        -0.5390 
     59 N          32.2599   28.1198    6.5286 N.am      10 UNK        -0.4215 
     60 CA         33.0890   26.9429    6.7759 C.3       10 UNK         0.0240 
     61 CB         33.3047   26.7202    8.2867 C.3       10 UNK        -0.1982 
     62 C          34.4349   27.1394    6.0713 C.2       10 UNK         0.4970 
     63 O          34.9308   28.2669    6.0162 O.2       10 UNK        -0.4916 
     64 N          34.9997   26.0386    5.5706 N.am      11 UNK        -0.4279 
     65 CA         36.3256   25.9496    4.9465 C.3       11 UNK         0.1003 
     66 C          37.0506   24.6827    5.4711 C.2       11 UNK         0.5709 
     67 N          38.3764   24.6793    5.4616 N.am      11 UNK        -0.7358 
     68 O          36.4271   23.6963    5.8627 O.2       11 UNK        -0.4999 
     69 C69        36.2384   25.9412    3.3932 C.3       12 UNK        -0.0954 
     70 S70        36.1590   27.6124    2.6657 S.3       12 UNK        -0.2268 
     71 C71        34.3735   27.9145    2.4860 C.3       12 UNK         0.0203 
     72 H72        30.0548   25.0347    8.5368 H         1 UNK         0.0888 
     73 H73        29.9691   23.2972    8.8064 H         1 UNK         0.0888 
     74 H74        31.4738   24.0257    8.2365 H         1 UNK         0.0888 
     75 H75        29.6020   25.8417    6.4345 H         1 UNK         0.3017 
     76 H76        28.5938   23.9459    4.4609 H         1 UNK         0.0873 
     77 H77        30.7270   25.9727    3.5820 H         1 UNK         0.0745 
     78 H78        31.1385   24.3329    4.0004 H         1 UNK         0.0745 
     79 H79        31.3894   23.2295    0.4578 H         1 UNK         0.0705 
     80 H80        32.0884   23.3309    2.0513 H         1 UNK         0.0705 
     81 H81        32.9819   25.6099    2.8606 H         1 UNK         0.1334 
     82 H82        34.3099   28.2821   -0.2090 H         1 UNK         0.1417 
     83 H83        31.8781   24.8940   -1.2213 H         1 UNK         0.1562 
     84 H84        33.7742   26.2711   -2.8824 H         1 UNK         0.0748 
     85 H85        33.7185   27.9670   -2.4697 H         1 UNK         0.0748 
     86 H86        31.2909   29.4388   -2.4503 H         1 UNK         0.0940 
     87 H87        30.9672   28.3477   -1.1264 H         1 UNK         0.0940 
     88 H88        29.1214   28.8206   -3.5243 H         1 UNK         0.0703 
     89 H89        28.2738   27.3405   -1.1028 H         1 UNK         0.3081 
     90 H90        26.5377   24.9978   -3.1320 H         1 UNK         0.0719 
     91 H91        28.5556   24.6681   -0.8434 H         1 UNK         0.0809 
     92 H92        27.3469   23.4857   -1.3412 H         1 UNK         0.0809 
     93 H93        28.6737   23.8938   -2.4168 H         1 UNK         0.0809 
     94 H94        26.1355   25.4463   -0.4320 H         1 UNK         0.2990 
     95 H95        23.9899   28.2792   -0.4932 H         1 UNK         0.0690 
     96 H96        22.4773   26.6014    0.5374 H         1 UNK         0.0788 
     97 H97        23.4644   25.2872   -0.0996 H         1 UNK         0.0788 
     98 H98        22.6107   26.3585   -1.1968 H         1 UNK         0.0788 
     99 H99        25.2090   28.3179    1.3117 H         1 UNK         0.2993 
    100 H100       26.6996   27.7850    2.9387 H         1 UNK         0.0949 
    101 H101       25.4841   27.3097    5.0863 H         1 UNK         0.0767 
    102 H102       24.3330   27.6904    3.8192 H         1 UNK         0.0767 
    103 H103       24.5750   26.0172    4.3052 H         1 UNK         0.0767 
    104 H104       27.1510   24.9707    2.9581 H         1 UNK         0.3013 
    105 H105       26.7625   29.1361   -2.2254 H         1 UNK         0.3121 
    106 H106       25.3780   30.5487   -1.2545 H         1 UNK         0.0774 
    107 H107       25.8388   32.9826   -1.3597 H         1 UNK         0.0815 
    108 H108       27.5531   32.6833   -1.6449 H         1 UNK         0.0815 
    109 H109       26.3561   32.2042   -2.8396 H         1 UNK         0.0815 
    110 H110       27.0046   32.8664    0.4393 H         1 UNK         0.2987 
    111 H111       26.5979   31.5855    3.0394 H         1 UNK         0.0949 
    112 H112       27.6368   34.3664    2.2702 H         1 UNK         0.0806 
    113 H113       25.9724   33.9616    2.6903 H         1 UNK         0.0806 
    114 H114       27.2395   33.8336    3.8980 H         1 UNK         0.0806 
    115 H115       28.1893   29.9075    2.1155 H         1 UNK         0.3010 
    116 H116       30.9581   30.3939    1.9465 H         1 UNK         0.0829 
    117 H117       29.8065   28.4609    0.9065 H         1 UNK         0.0813 
    118 H118       31.1104   27.9019    1.9371 H         1 UNK         0.0813 
    119 H119       29.4464   27.7835    2.4878 H         1 UNK         0.0813 
    120 H120       29.0152   29.5647    4.7536 H         1 UNK         0.3038 
    121 H121       29.3039   29.5617    6.9224 H         1 UNK         0.0769 
    122 H122       32.0182   30.9236    6.4894 H         1 UNK         0.0811 
    123 H123       31.1962   30.7376    8.0297 H         1 UNK         0.0811 
    124 H124       30.4736   31.7186    6.7654 H         1 UNK         0.0811 
    125 H125       32.7123   28.8623    6.0020 H         1 UNK         0.3204 
    126 H126       32.5850   26.0745    6.3461 H         1 UNK         0.0748 
    127 H127       33.9599   25.8670    8.4673 H         1 UNK         0.0771 
    128 H128       33.7640   27.5904    8.7573 H         1 UNK         0.0771 
    129 H129       32.3682   26.5172    8.8054 H         1 UNK         0.0771 
    130 H130       34.5624   25.1404    5.7264 H         1 UNK         0.2980 
    131 H131       36.9284   26.8015    5.2684 H         1 UNK         0.0545 
    132 H132       38.8980   25.4769    5.1321 H         1 UNK         0.3459 
    133 H133       38.8660   23.8614    5.7895 H         1 UNK         0.3459 
    134 H134       35.4066   25.3278    3.0488 H         1 UNK         0.0616 
    135 H135       37.1300   25.4837    2.9600 H         1 UNK         0.0616 
    136 H136       33.8748   27.7831    3.4438 H         1 UNK         0.0634 
    137 H137       34.2253   28.9622    2.2205 H         1 UNK         0.0634 
@<TRIPOS>BOND
     1    1    2 1    
     2    1   72 1    
     3    1   73 1    
     4    1   74 1    
     5    2    3 2    
     6    2    4 am   BACKBONE|DICT|INTERRES
     7    4    5 1    
     8    4   75 1    
     9    5    6 1    
    10    5   35 1    
    11    5   76 1    
    12    6    7 1    
    13    6   77 1    
    14    6   78 1    
    15    7    8 1    
    16    8    9 1    
    17    8   79 1    
    18    8   80 1    
    19    9   10 ar   
    20    9   14 ar   
    21   10   11 ar   
    22   10   81 1    
    23   11   12 ar   
    24   11   71 1    
    25   12   13 ar   
    26   12   82 1    
    27   13   14 ar   
    28   13   15 1    
    29   14   83 1    
    30   15   16 1    
    31   15   84 1    
    32   15   85 1    
    33   16   17 1    
    34   17   18 1    
    35   17   86 1    
    36   17   87 1    
    37   18   19 1    
    38   18   37 1    
    39   18   88 1    
    40   19   20 am   BACKBONE|DICT|INTERRES
    41   19   89 1    
    42   20   21 2    
    43   20   22 1    
    44   22   23 1    
    45   22   24 1    
    46   22   90 1    
    47   23   91 1    
    48   23   92 1    
    49   23   93 1    
    50   24   25 am   BACKBONE|DICT|INTERRES
    51   24   94 1    
    52   25   26 2    
    53   25   27 1    
    54   27   28 1    
    55   27   29 1    
    56   27   95 1    
    57   28   96 1    
    58   28   97 1    
    59   28   98 1    
    60   29   30 am   BACKBONE|DICT|INTERRES
    61   29   99 1    
    62   30   31 2    
    63   30   32 1    
    64   32   33 1    
    65   32   34 1    
    66   32  100 1    
    67   33  101 1    
    68   33  102 1    
    69   33  103 1    
    70   34   35 am   BACKBONE|DICT|INTERRES
    71   34  104 1    
    72   35   36 2    
    73   37   38 2    
    74   37   39 am   BACKBONE|DICT|INTERRES
    75   39   40 1    
    76   39  105 1    
    77   40   41 1    
    78   40   42 1    
    79   40  106 1    
    80   41  107 1    
    81   41  108 1    
    82   41  109 1    
    83   42   43 2    
    84   42   44 am   BACKBONE|DICT|INTERRES
    85   44   45 1    
    86   44  110 1    
    87   45   46 1    
    88   45   47 1    
    89   45  111 1    
    90   46  112 1    
    91   46  113 1    
    92   46  114 1    
    93   47   48 2    
    94   47   49 am   BACKBONE|DICT|INTERRES
    95   49   50 1    
    96   49  115 1    
    97   50   51 1    
    98   50   52 1    
    99   50  116 1    
   100   51  117 1    
   101   51  118 1    
   102   51  119 1    
   103   52   53 2    
   104   52   54 am   BACKBONE|DICT|INTERRES
   105   54   55 1    
   106   54  120 1    
   107   55   56 1    
   108   55   57 1    
   109   55  121 1    
   110   56  122 1    
   111   56  123 1    
   112   56  124 1    
   113   57   58 2    
   114   57   59 am   BACKBONE|DICT|INTERRES
   115   59   60 1    
   116   59  125 1    
   117   60   61 1    
   118   60   62 1    
   119   60  126 1    
   120   61  127 1    
   121   61  128 1    
   122   61  129 1    
   123   62   63 2    
   124   62   64 am   BACKBONE|DICT|INTERRES
   125   64   65 1    
   126   64  130 1    
   127   65   66 1    
   128   65   69 1    
   129   65  131 1    
   130   66   67 am   BACKBONE|DICT|INTERRES
   131   66   68 2    
   132   67  132 1    
   133   67  133 1    
   134   69   70 1    
   135   69  134 1    
   136   69  135 1    
   137   70   71 1    
   138   71  136 1    
   139   71  137 1    
@<TRIPOS>SUBSTRUCTURE
     1 UNK         1 GROUP             0       ****    0 ROOT    
