@<TRIPOS>MOLECULE
3R136
137   139    1
SMALL
USER_CHARGES


@<TRIPOS>ATOM
      1 CA         26.5670   21.7629    1.3615 C.3       0 UNK        -0.1979 
      2 C          27.8975   22.2880    0.8429 C.2       0 UNK         0.4864 
      3 O          28.9505   21.7899    1.2425 O.2       0 UNK        -0.5359 
      4 N          27.8524   23.2872   -0.0420 N.am      1 UNK        -0.4318 
      5 CA         29.0102   23.9555   -0.6312 C.3       1 UNK         0.0824 
      6 C6         29.4538   25.1616    0.2407 C.3       12 UNK        -0.0944 
      7 S7         31.1898   25.6390   -0.0480 S.3       12 UNK        -0.2672 
      8 C8         32.0745   24.5787    1.1433 C.3       12 UNK         0.0333 
      9 C9         31.6903   24.8797    2.5851 C.ar      12 UNK        -0.0807 
     10 C10        32.1047   26.0698    3.1889 C.ar      12 UNK        -0.0894 
     11 C11        31.7375   26.3618    4.5051 C.ar      12 UNK        -0.0804 
     12 C12        30.9495   25.4543    5.2179 C.ar      12 UNK        -0.0824 
     13 C13        30.5124   24.2687    4.6188 C.ar      12 UNK        -0.0762 
     14 C14        30.9013   23.9789    3.3082 C.ar      12 UNK        -0.0782 
     15 C15        29.6031   23.3109    5.3772 C.3       12 UNK         0.0230 
     16 S16        27.8575   23.4695    4.8661 S.3       12 UNK        -0.2608 
     17 C17        27.4830   25.1934    5.3343 C.3       12 UNK        -0.0989 
     18 CA         27.3719   26.1100    4.0884 C.3       5 UNK         0.0716 
     19 N          26.1627   25.7930    3.3064 N.am      5 UNK        -0.4135 
     20 C          25.8601   26.2681    2.0914 C.2       4 UNK         0.5031 
     21 O          26.5832   27.0485    1.4690 O.2       4 UNK        -0.5229 
     22 CA         24.4794   25.8801    1.5263 C.3       4 UNK         0.0329 
     23 CB         23.3532   26.5364    2.3450 C.3       4 UNK        -0.2001 
     24 N          24.3466   26.3094    0.1326 N.am      4 UNK        -0.4303 
     25 C          24.9200   25.6863   -0.9018 C.2       3 UNK         0.5044 
     26 O          25.4505   24.5765   -0.8132 O.2       3 UNK        -0.5152 
     27 CA         24.9805   26.4371   -2.2420 C.3       3 UNK         0.0319 
     28 CB         24.3673   27.8532   -2.2261 C.3       3 UNK        -0.2001 
     29 N          26.3946   26.5181   -2.5788 N.am      3 UNK        -0.4354 
     30 C          26.9445   26.3045   -3.7788 C.2       2 UNK         0.4964 
     31 O          26.3075   26.2199   -4.8292 O.2       2 UNK        -0.5047 
     32 CA         28.4750   26.1080   -3.7912 C.3       2 UNK         0.0288 
     33 CB         29.1919   27.4437   -4.0470 C.3       2 UNK        -0.2113 
     34 N          28.9738   25.5219   -2.5393 N.am      2 UNK        -0.4145 
     35 C          28.6591   24.2956   -2.0933 C.2       1 UNK         0.5006 
     36 O          28.0760   23.4562   -2.7846 O.2       1 UNK        -0.5103 
     37 C          27.5163   27.6040    4.4815 C.2       5 UNK         0.5055 
     38 O          28.5397   27.9781    5.0548 O.2       5 UNK        -0.5220 
     39 N          26.5122   28.4381    4.1753 N.am      6 UNK        -0.4450 
     40 CA         26.5946   29.8978    4.2365 C.3       6 UNK         0.0367 
     41 CB         25.1743   30.4840    4.1870 C.3       6 UNK        -0.1929 
     42 C          27.4625   30.4934    3.1089 C.2       6 UNK         0.5070 
     43 O          27.9896   31.5931    3.2818 O.2       6 UNK        -0.5237 
     44 N          27.5941   29.7814    1.9787 N.am      7 UNK        -0.4739 
     45 CA         28.4834   30.1482    0.8757 C.3       7 UNK         0.0276 
     46 CB         28.0367   29.4174   -0.4020 C.3       7 UNK        -0.1927 
     47 C          29.9407   29.7966    1.2164 C.2       7 UNK         0.5013 
     48 O          30.1795   28.8198    1.9278 O.2       7 UNK        -0.5193 
     49 N          30.8804   30.5911    0.6796 N.am      8 UNK        -0.4253 
     50 CA         32.3364   30.4758    0.8582 C.3       8 UNK         0.0242 
     51 CB         32.8738   29.2146    0.1479 C.3       8 UNK        -0.2000 
     52 C          32.7689   30.5547    2.3371 C.2       8 UNK         0.4948 
     53 O          33.6378   29.7955    2.7669 O.2       8 UNK        -0.5275 
     54 N          32.1568   31.4879    3.0839 N.am      9 UNK        -0.4246 
     55 CA         32.2423   31.6705    4.5422 C.3       9 UNK         0.0261 
     56 CB         31.3263   32.8397    4.9423 C.3       9 UNK        -0.1959 
     57 C          33.6510   31.8598    5.1452 C.2       9 UNK         0.5033 
     58 O          33.7901   31.7972    6.3671 O.2       9 UNK        -0.5390 
     59 N          34.6693   32.0631    4.3006 N.am      10 UNK        -0.4215 
     60 CA         36.0897   32.0776    4.6587 C.3       10 UNK         0.0240 
     61 CB         36.8701   32.7734    3.5292 C.3       10 UNK        -0.1982 
     62 C          36.6791   30.6788    4.9553 C.2       10 UNK         0.4970 
     63 O          37.8698   30.6014    5.2623 O.2       10 UNK        -0.4916 
     64 N          35.8703   29.6138    4.8355 N.am      11 UNK        -0.4279 
     65 CA         36.2100   28.2065    5.1019 C.3       11 UNK         0.1003 
     66 C          36.9326   27.9344    6.4564 C.2       11 UNK         0.5709 
     67 N          37.7799   26.9146    6.5083 N.am      11 UNK        -0.7358 
     68 O          36.7096   28.6067    7.4622 O.2       11 UNK        -0.4999 
     69 C69        34.9689   27.2869    4.9173 C.3       12 UNK        -0.0954 
     70 S70        33.6436   27.5340    6.1576 S.3       12 UNK        -0.2268 
     71 C71        32.1427   27.6825    5.1400 C.3       12 UNK         0.0203 
     72 H72        26.4628   20.7044    1.1252 H         1 UNK         0.0888 
     73 H73        26.5159   21.8786    2.4438 H         1 UNK         0.0888 
     74 H74        25.7220   22.2942    0.9233 H         1 UNK         0.0888 
     75 H75        26.9510   23.6324   -0.3729 H         1 UNK         0.3017 
     76 H76        29.8308   23.2368   -0.6843 H         1 UNK         0.0873 
     77 H77        29.3320   24.9232    1.2964 H         1 UNK         0.0745 
     78 H78        28.8085   26.0283    0.0914 H         1 UNK         0.0745 
     79 H79        31.8824   23.5321    0.9018 H         1 UNK         0.0705 
     80 H80        33.1477   24.7297    1.0192 H         1 UNK         0.0705 
     81 H81        32.6897   26.7821    2.6232 H         1 UNK         0.1334 
     82 H82        30.6539   25.6898    6.2310 H         1 UNK         0.1417 
     83 H83        30.5607   23.0645    2.8416 H         1 UNK         0.1562 
     84 H84        29.6814   23.4742    6.4532 H         1 UNK         0.0748 
     85 H85        29.9292   22.2847    5.2014 H         1 UNK         0.0748 
     86 H86        28.2514   25.5424    6.0253 H         1 UNK         0.0940 
     87 H87        26.5538   25.2092    5.9068 H         1 UNK         0.0940 
     88 H88        28.2291   25.9080    3.4415 H         1 UNK         0.0703 
     89 H89        25.5144   25.1598    3.7517 H         1 UNK         0.3081 
     90 H90        24.3744   24.7942    1.5813 H         1 UNK         0.0719 
     91 H91        22.3730   26.2776    1.9434 H         1 UNK         0.0809 
     92 H92        23.4339   27.6244    2.3479 H         1 UNK         0.0809 
     93 H93        23.3668   26.2043    3.3838 H         1 UNK         0.0809 
     94 H94        23.9758   27.2357   -0.0191 H         1 UNK         0.2990 
     95 H95        24.4532   25.8260   -2.9775 H         1 UNK         0.0690 
     96 H96        24.4578   28.3244   -3.2050 H         1 UNK         0.0788 
     97 H97        24.8595   28.5060   -1.5039 H         1 UNK         0.0788 
     98 H98        23.3035   27.8224   -1.9870 H         1 UNK         0.0788 
     99 H99        27.0127   26.5403   -1.7807 H         1 UNK         0.2993 
    100 H100       28.7139   25.4218   -4.6066 H         1 UNK         0.0949 
    101 H101       30.2711   27.3072   -4.1199 H         1 UNK         0.0767 
    102 H102       28.8587   27.8905   -4.9849 H         1 UNK         0.0767 
    103 H103       28.9970   28.1666   -3.2542 H         1 UNK         0.0767 
    104 H104       29.5198   26.1211   -1.9343 H         1 UNK         0.3013 
    105 H105       25.7024   28.0509    3.7163 H         1 UNK         0.3121 
    106 H106       27.0501   30.1800    5.1883 H         1 UNK         0.0774 
    107 H107       25.2005   31.5722    4.2603 H         1 UNK         0.0815 
    108 H108       24.6649   30.2331    3.2557 H         1 UNK         0.0815 
    109 H109       24.5646   30.1200    5.0141 H         1 UNK         0.0815 
    110 H110       27.1890   28.8510    1.9270 H         1 UNK         0.2987 
    111 H111       28.4046   31.2246    0.7071 H         1 UNK         0.0949 
    112 H112       28.1398   28.3369   -0.3030 H         1 UNK         0.0806 
    113 H113       26.9958   29.6343   -0.6414 H         1 UNK         0.0806 
    114 H114       28.6383   29.7249   -1.2580 H         1 UNK         0.0806 
    115 H115       30.5756   31.3626    0.1016 H         1 UNK         0.3010 
    116 H116       32.7793   31.3429    0.3660 H         1 UNK         0.0829 
    117 H117       32.5662   29.1829   -0.8971 H         1 UNK         0.0813 
    118 H118       33.9639   29.1882    0.1670 H         1 UNK         0.0813 
    119 H119       32.5202   28.3021    0.6284 H         1 UNK         0.0813 
    120 H120       31.4700   32.0638    2.6187 H         1 UNK         0.3038 
    121 H121       31.8382   30.7626    4.9933 H         1 UNK         0.0769 
    122 H122       31.3209   32.9841    6.0238 H         1 UNK         0.0811 
    123 H123       30.2944   32.6578    4.6404 H         1 UNK         0.0811 
    124 H124       31.6504   33.7778    4.4901 H         1 UNK         0.0811 
    125 H125       34.4562   32.0638    3.3137 H         1 UNK         0.3204 
    126 H126       36.2063   32.6705    5.5682 H         1 UNK         0.0748 
    127 H127       37.9278   32.8655    3.7799 H         1 UNK         0.0771 
    128 H128       36.8044   32.2179    2.5927 H         1 UNK         0.0771 
    129 H129       36.4955   33.7815    3.3499 H         1 UNK         0.0771 
    130 H130       34.9263   29.7693    4.5055 H         1 UNK         0.2980 
    131 H131       36.9211   27.9420    4.3173 H         1 UNK         0.0545 
    132 H132       37.9625   26.3448    5.6970 H         1 UNK         0.3459 
    133 H133       38.2475   26.7116    7.3780 H         1 UNK         0.3459 
    134 H134       35.2676   26.2380    4.9521 H         1 UNK         0.0616 
    135 H135       34.5598   27.4384    3.9184 H         1 UNK         0.0616 
    136 H136       32.2828   28.4410    4.3744 H         1 UNK         0.0634 
    137 H137       31.3298   28.0459    5.7703 H         1 UNK         0.0634 
@<TRIPOS>BOND
     1    1    2 1    
     2    1   72 1    
     3    1   73 1    
     4    1   74 1    
     5    2    3 2    
     6    2    4 am   BACKBONE|DICT|INTERRES
     7    4    5 1    
     8    4   75 1    
     9    5    6 1    
    10    5   35 1    
    11    5   76 1    
    12    6    7 1    
    13    6   77 1    
    14    6   78 1    
    15    7    8 1    
    16    8    9 1    
    17    8   79 1    
    18    8   80 1    
    19    9   10 ar   
    20    9   14 ar   
    21   10   11 ar   
    22   10   81 1    
    23   11   12 ar   
    24   11   71 1    
    25   12   13 ar   
    26   12   82 1    
    27   13   14 ar   
    28   13   15 1    
    29   14   83 1    
    30   15   16 1    
    31   15   84 1    
    32   15   85 1    
    33   16   17 1    
    34   17   18 1    
    35   17   86 1    
    36   17   87 1    
    37   18   19 1    
    38   18   37 1    
    39   18   88 1    
    40   19   20 am   BACKBONE|DICT|INTERRES
    41   19   89 1    
    42   20   21 2    
    43   20   22 1    
    44   22   23 1    
    45   22   24 1    
    46   22   90 1    
    47   23   91 1    
    48   23   92 1    
    49   23   93 1    
    50   24   25 am   BACKBONE|DICT|INTERRES
    51   24   94 1    
    52   25   26 2    
    53   25   27 1    
    54   27   28 1    
    55   27   29 1    
    56   27   95 1    
    57   28   96 1    
    58   28   97 1    
    59   28   98 1    
    60   29   30 am   BACKBONE|DICT|INTERRES
    61   29   99 1    
    62   30   31 2    
    63   30   32 1    
    64   32   33 1    
    65   32   34 1    
    66   32  100 1    
    67   33  101 1    
    68   33  102 1    
    69   33  103 1    
    70   34   35 am   BACKBONE|DICT|INTERRES
    71   34  104 1    
    72   35   36 2    
    73   37   38 2    
    74   37   39 am   BACKBONE|DICT|INTERRES
    75   39   40 1    
    76   39  105 1    
    77   40   41 1    
    78   40   42 1    
    79   40  106 1    
    80   41  107 1    
    81   41  108 1    
    82   41  109 1    
    83   42   43 2    
    84   42   44 am   BACKBONE|DICT|INTERRES
    85   44   45 1    
    86   44  110 1    
    87   45   46 1    
    88   45   47 1    
    89   45  111 1    
    90   46  112 1    
    91   46  113 1    
    92   46  114 1    
    93   47   48 2    
    94   47   49 am   BACKBONE|DICT|INTERRES
    95   49   50 1    
    96   49  115 1    
    97   50   51 1    
    98   50   52 1    
    99   50  116 1    
   100   51  117 1    
   101   51  118 1    
   102   51  119 1    
   103   52   53 2    
   104   52   54 am   BACKBONE|DICT|INTERRES
   105   54   55 1    
   106   54  120 1    
   107   55   56 1    
   108   55   57 1    
   109   55  121 1    
   110   56  122 1    
   111   56  123 1    
   112   56  124 1    
   113   57   58 2    
   114   57   59 am   BACKBONE|DICT|INTERRES
   115   59   60 1    
   116   59  125 1    
   117   60   61 1    
   118   60   62 1    
   119   60  126 1    
   120   61  127 1    
   121   61  128 1    
   122   61  129 1    
   123   62   63 2    
   124   62   64 am   BACKBONE|DICT|INTERRES
   125   64   65 1    
   126   64  130 1    
   127   65   66 1    
   128   65   69 1    
   129   65  131 1    
   130   66   67 am   BACKBONE|DICT|INTERRES
   131   66   68 2    
   132   67  132 1    
   133   67  133 1    
   134   69   70 1    
   135   69  134 1    
   136   69  135 1    
   137   70   71 1    
   138   71  136 1    
   139   71  137 1    
@<TRIPOS>SUBSTRUCTURE
     1 UNK         1 GROUP             0       ****    0 ROOT    
