@<TRIPOS>MOLECULE
3R136
137   139    1
SMALL
USER_CHARGES


@<TRIPOS>ATOM
      1 CA         34.2139   28.3289    0.5729 C.3       0 UNK        -0.1979 
      2 C          33.2406   27.1853    0.8220 C.2       0 UNK         0.4864 
      3 O          33.3362   26.5048    1.8434 O.2       0 UNK        -0.5359 
      4 N          32.3089   26.9781   -0.1109 N.am      1 UNK        -0.4318 
      5 CA         31.2556   25.9681   -0.0816 C.3       1 UNK         0.0824 
      6 C6         31.8114   24.5535   -0.4054 C.3       12 UNK        -0.0944 
      7 S7         30.5788   23.2059   -0.3060 S.3       12 UNK        -0.2672 
      8 C8         31.1252   22.2664    1.1520 C.3       12 UNK         0.0333 
      9 C9         30.6105   22.8733    2.4482 C.ar      12 UNK        -0.0807 
     10 C10        31.3904   23.7923    3.1561 C.ar      12 UNK        -0.0894 
     11 C11        30.9438   24.3088    4.3758 C.ar      12 UNK        -0.0804 
     12 C12        29.7064   23.9060    4.8834 C.ar      12 UNK        -0.0824 
     13 C13        28.9070   23.0031    4.1751 C.ar      12 UNK        -0.0762 
     14 C14        29.3656   22.4882    2.9584 C.ar      12 UNK        -0.0782 
     15 C15        27.5595   22.5693    4.7400 C.3       12 UNK         0.0230 
     16 S16        26.1480   23.3251    3.8664 S.3       12 UNK        -0.2608 
     17 C17        26.4725   25.1091    4.0730 C.3       12 UNK        -0.0989 
     18 CA         26.7574   25.7812    2.7035 C.3       5 UNK         0.0716 
     19 N          25.5806   25.8666    1.8233 N.am      5 UNK        -0.4135 
     20 C          24.4116   26.4885    2.0493 C.2       4 UNK         0.5031 
     21 O          24.1649   27.1006    3.0901 O.2       4 UNK        -0.5229 
     22 CA         23.3476   26.4804    0.9312 C.3       4 UNK         0.0329 
     23 CB         22.8328   27.9057    0.6581 C.3       4 UNK        -0.2001 
     24 N          23.8474   25.9227   -0.3260 N.am      4 UNK        -0.4303 
     25 C          23.7475   24.6428   -0.7106 C.2       3 UNK         0.5044 
     26 O          23.1324   23.7804   -0.0836 O.2       3 UNK        -0.5152 
     27 CA         24.5011   24.2549   -2.0003 C.3       3 UNK         0.0319 
     28 CB         23.5602   24.3168   -3.2141 C.3       3 UNK        -0.2001 
     29 N          25.6853   25.0884   -2.2573 N.am      3 UNK        -0.4354 
     30 C          26.7442   25.1627   -1.4394 C.2       2 UNK         0.4964 
     31 O          26.8590   24.4889   -0.4123 O.2       2 UNK        -0.5047 
     32 CA         27.8018   26.2203   -1.7693 C.3       2 UNK         0.0288 
     33 CB         27.2463   27.6395   -1.5392 C.3       2 UNK        -0.2113 
     34 N          28.9501   25.9858   -0.9015 N.am      2 UNK        -0.4145 
     35 C          30.1906   26.4384   -1.0907 C.2       1 UNK         0.5006 
     36 O          30.5149   27.1843   -2.0213 O.2       1 UNK        -0.5103 
     37 C          27.5000   27.1233    2.8653 C.2       5 UNK         0.5055 
     38 O          28.7188   27.1563    2.6921 O.2       5 UNK        -0.5220 
     39 N          26.7686   28.1959    3.1916 N.am      6 UNK        -0.4450 
     40 CA         27.2809   29.5557    3.3532 C.3       6 UNK         0.0367 
     41 CB         26.1683   30.4502    3.9225 C.3       6 UNK        -0.1929 
     42 C          27.8148   30.1298    2.0302 C.2       6 UNK         0.5070 
     43 O          27.1387   30.0380    1.0040 O.2       6 UNK        -0.5237 
     44 N          29.0016   30.7354    2.0973 N.am      7 UNK        -0.4739 
     45 CA         29.7411   31.3577    1.0035 C.3       7 UNK         0.0276 
     46 CB         30.3090   30.2818    0.0529 C.3       7 UNK        -0.1927 
     47 C          30.8611   32.2056    1.6252 C.2       7 UNK         0.5013 
     48 O          31.0665   32.1480    2.8436 O.2       7 UNK        -0.5193 
     49 N          31.5722   32.9699    0.7856 N.am      8 UNK        -0.4253 
     50 CA         32.7012   33.8214    1.1727 C.3       8 UNK         0.0242 
     51 CB         33.2216   34.5724   -0.0650 C.3       8 UNK        -0.2000 
     52 C          33.8260   33.0131    1.8454 C.2       8 UNK         0.4948 
     53 O          34.4685   32.1994    1.1788 O.2       8 UNK        -0.5275 
     54 N          34.0037   33.2374    3.1560 N.am      9 UNK        -0.4246 
     55 CA         34.9457   32.5606    4.0579 C.3       9 UNK         0.0261 
     56 CB         36.4037   32.9100    3.6877 C.3       9 UNK        -0.1959 
     57 C          34.7121   31.0390    4.1833 C.2       9 UNK         0.5033 
     58 O          35.6703   30.2979    4.4201 O.2       9 UNK        -0.5390 
     59 N          33.4530   30.5950    4.0317 N.am      10 UNK        -0.4215 
     60 CA         33.0443   29.1890    4.0962 C.3       10 UNK         0.0240 
     61 CB         31.5349   29.0649    3.8375 C.3       10 UNK        -0.1982 
     62 C          33.4288   28.5117    5.4180 C.2       10 UNK         0.4970 
     63 O          32.9497   28.9299    6.4741 O.2       10 UNK        -0.4916 
     64 N          34.2871   27.4877    5.3163 N.am      11 UNK        -0.4279 
     65 CA         34.8336   26.7019    6.4340 C.3       11 UNK         0.1003 
     66 C          35.7167   27.5260    7.4246 C.2       11 UNK         0.5709 
     67 N          36.2241   28.6945    7.0443 N.am      11 UNK        -0.7358 
     68 O          35.9826   27.0875    8.5415 O.2       11 UNK        -0.4999 
     69 C69        33.7444   25.8340    7.1342 C.3       12 UNK        -0.0954 
     70 S70        33.1180   24.4838    6.0747 S.3       12 UNK        -0.2268 
     71 C71        31.7940   25.3095    5.1397 C.3       12 UNK         0.0203 
     72 H72        35.1685   28.1318    1.0603 H         1 UNK         0.0888 
     73 H73        34.4033   28.4633   -0.4919 H         1 UNK         0.0888 
     74 H74        33.8153   29.2632    0.9685 H         1 UNK         0.0888 
     75 H75        32.2489   27.5769   -0.9270 H         1 UNK         0.3017 
     76 H76        30.8084   25.9672    0.9159 H         1 UNK         0.0873 
     77 H77        32.6378   24.3211    0.2670 H         1 UNK         0.0745 
     78 H78        32.2418   24.5402   -1.4085 H         1 UNK         0.0745 
     79 H79        32.2135   22.1904    1.1658 H         1 UNK         0.0705 
     80 H80        30.7576   21.2433    1.0596 H         1 UNK         0.0705 
     81 H81        32.3510   24.1009    2.7656 H         1 UNK         0.1334 
     82 H82        29.3640   24.3011    5.8301 H         1 UNK         0.1417 
     83 H83        28.7540   21.7832    2.4116 H         1 UNK         0.1562 
     84 H84        27.4902   22.8121    5.8016 H         1 UNK         0.0748 
     85 H85        27.4735   21.4838    4.6729 H         1 UNK         0.0748 
     86 H86        27.3091   25.2466    4.7583 H         1 UNK         0.0940 
     87 H87        25.6182   25.5659    4.5734 H         1 UNK         0.0940 
     88 H88        27.4603   25.1371    2.1715 H         1 UNK         0.0703 
     89 H89        25.7022   25.3812    0.9414 H         1 UNK         0.3081 
     90 H90        22.5093   25.8799    1.2905 H         1 UNK         0.0719 
     91 H91        23.6379   28.5734    0.3478 H         1 UNK         0.0809 
     92 H92        22.0719   27.9103   -0.1225 H         1 UNK         0.0809 
     93 H93        22.3774   28.3380    1.5502 H         1 UNK         0.0809 
     94 H94        24.3629   26.5542   -0.9215 H         1 UNK         0.2990 
     95 H95        24.8402   23.2235   -1.8817 H         1 UNK         0.0690 
     96 H96        24.0551   23.9635   -4.1189 H         1 UNK         0.0788 
     97 H97        23.2034   25.3309   -3.3989 H         1 UNK         0.0788 
     98 H98        22.6833   23.6861   -3.0599 H         1 UNK         0.0788 
     99 H99        25.6598   25.6713   -3.0825 H         1 UNK         0.2993 
    100 H100       28.1057   26.0969   -2.8110 H         1 UNK         0.0949 
    101 H101       27.9894   28.4014   -1.7733 H         1 UNK         0.0767 
    102 H102       26.3808   27.8392   -2.1715 H         1 UNK         0.0767 
    103 H103       26.9381   27.7854   -0.5029 H         1 UNK         0.0767 
    104 H104       28.7700   25.3136   -0.1638 H         1 UNK         0.3013 
    105 H105       25.7641   28.0620    3.2787 H         1 UNK         0.3121 
    106 H106       28.0971   29.5155    4.0780 H         1 UNK         0.0774 
    107 H107       26.5258   31.4696    4.0738 H         1 UNK         0.0815 
    108 H108       25.3105   30.5012    3.2503 H         1 UNK         0.0815 
    109 H109       25.8173   30.0832    4.8872 H         1 UNK         0.0815 
    110 H110       29.4686   30.8361    2.9912 H         1 UNK         0.2987 
    111 H111       29.0676   32.0202    0.4558 H         1 UNK         0.0949 
    112 H112       30.8251   30.7327   -0.7951 H         1 UNK         0.0806 
    113 H113       31.0213   29.6288    0.5557 H         1 UNK         0.0806 
    114 H114       29.5199   29.6523   -0.3571 H         1 UNK         0.0806 
    115 H115       31.3527   32.9401   -0.1993 H         1 UNK         0.3010 
    116 H116       32.3262   34.5632    1.8812 H         1 UNK         0.0829 
    117 H117       32.4492   35.2070   -0.5000 H         1 UNK         0.0813 
    118 H118       34.0609   35.2184    0.1962 H         1 UNK         0.0813 
    119 H119       33.5686   33.8861   -0.8387 H         1 UNK         0.0813 
    120 H120       33.3873   33.9029    3.6032 H         1 UNK         0.3038 
    121 H121       34.7560   32.9686    5.0517 H         1 UNK         0.0769 
    122 H122       37.1000   32.5347    4.4386 H         1 UNK         0.0811 
    123 H123       36.5504   33.9881    3.6237 H         1 UNK         0.0811 
    124 H124       36.6931   32.4739    2.7311 H         1 UNK         0.0811 
    125 H125       32.7222   31.2680    3.8259 H         1 UNK         0.3204 
    126 H126       33.5686   28.6762    3.2928 H         1 UNK         0.0748 
    127 H127       31.1925   28.0355    3.9438 H         1 UNK         0.0771 
    128 H128       30.9532   29.6758    4.5286 H         1 UNK         0.0771 
    129 H129       31.2910   29.3679    2.8228 H         1 UNK         0.0771 
    130 H130       34.6309   27.2342    4.4010 H         1 UNK         0.2980 
    131 H131       35.5436   26.0122    5.9766 H         1 UNK         0.0545 
    132 H132       36.8046   29.2097    7.6864 H         1 UNK         0.3459 
    133 H133       36.0214   29.0773    6.1280 H         1 UNK         0.3459 
    134 H134       34.1536   25.3488    8.0216 H         1 UNK         0.0616 
    135 H135       32.9134   26.4447    7.4892 H         1 UNK         0.0616 
    136 H136       31.1765   25.9041    5.8146 H         1 UNK         0.0634 
    137 H137       32.2377   26.0005    4.4249 H         1 UNK         0.0634 
@<TRIPOS>BOND
     1    1    2 1    
     2    1   72 1    
     3    1   73 1    
     4    1   74 1    
     5    2    3 2    
     6    2    4 am   BACKBONE|DICT|INTERRES
     7    4    5 1    
     8    4   75 1    
     9    5    6 1    
    10    5   35 1    
    11    5   76 1    
    12    6    7 1    
    13    6   77 1    
    14    6   78 1    
    15    7    8 1    
    16    8    9 1    
    17    8   79 1    
    18    8   80 1    
    19    9   10 ar   
    20    9   14 ar   
    21   10   11 ar   
    22   10   81 1    
    23   11   12 ar   
    24   11   71 1    
    25   12   13 ar   
    26   12   82 1    
    27   13   14 ar   
    28   13   15 1    
    29   14   83 1    
    30   15   16 1    
    31   15   84 1    
    32   15   85 1    
    33   16   17 1    
    34   17   18 1    
    35   17   86 1    
    36   17   87 1    
    37   18   19 1    
    38   18   37 1    
    39   18   88 1    
    40   19   20 am   BACKBONE|DICT|INTERRES
    41   19   89 1    
    42   20   21 2    
    43   20   22 1    
    44   22   23 1    
    45   22   24 1    
    46   22   90 1    
    47   23   91 1    
    48   23   92 1    
    49   23   93 1    
    50   24   25 am   BACKBONE|DICT|INTERRES
    51   24   94 1    
    52   25   26 2    
    53   25   27 1    
    54   27   28 1    
    55   27   29 1    
    56   27   95 1    
    57   28   96 1    
    58   28   97 1    
    59   28   98 1    
    60   29   30 am   BACKBONE|DICT|INTERRES
    61   29   99 1    
    62   30   31 2    
    63   30   32 1    
    64   32   33 1    
    65   32   34 1    
    66   32  100 1    
    67   33  101 1    
    68   33  102 1    
    69   33  103 1    
    70   34   35 am   BACKBONE|DICT|INTERRES
    71   34  104 1    
    72   35   36 2    
    73   37   38 2    
    74   37   39 am   BACKBONE|DICT|INTERRES
    75   39   40 1    
    76   39  105 1    
    77   40   41 1    
    78   40   42 1    
    79   40  106 1    
    80   41  107 1    
    81   41  108 1    
    82   41  109 1    
    83   42   43 2    
    84   42   44 am   BACKBONE|DICT|INTERRES
    85   44   45 1    
    86   44  110 1    
    87   45   46 1    
    88   45   47 1    
    89   45  111 1    
    90   46  112 1    
    91   46  113 1    
    92   46  114 1    
    93   47   48 2    
    94   47   49 am   BACKBONE|DICT|INTERRES
    95   49   50 1    
    96   49  115 1    
    97   50   51 1    
    98   50   52 1    
    99   50  116 1    
   100   51  117 1    
   101   51  118 1    
   102   51  119 1    
   103   52   53 2    
   104   52   54 am   BACKBONE|DICT|INTERRES
   105   54   55 1    
   106   54  120 1    
   107   55   56 1    
   108   55   57 1    
   109   55  121 1    
   110   56  122 1    
   111   56  123 1    
   112   56  124 1    
   113   57   58 2    
   114   57   59 am   BACKBONE|DICT|INTERRES
   115   59   60 1    
   116   59  125 1    
   117   60   61 1    
   118   60   62 1    
   119   60  126 1    
   120   61  127 1    
   121   61  128 1    
   122   61  129 1    
   123   62   63 2    
   124   62   64 am   BACKBONE|DICT|INTERRES
   125   64   65 1    
   126   64  130 1    
   127   65   66 1    
   128   65   69 1    
   129   65  131 1    
   130   66   67 am   BACKBONE|DICT|INTERRES
   131   66   68 2    
   132   67  132 1    
   133   67  133 1    
   134   69   70 1    
   135   69  134 1    
   136   69  135 1    
   137   70   71 1    
   138   71  136 1    
   139   71  137 1    
@<TRIPOS>SUBSTRUCTURE
     1 UNK         1 GROUP             0       ****    0 ROOT    
