@<TRIPOS>MOLECULE
3R136
137   139    1
SMALL
USER_CHARGES


@<TRIPOS>ATOM
      1 CA         25.8718   22.4636   -3.2068 C.3       0 UNK        -0.1979 
      2 C          27.2199   21.7995   -2.9712 C.2       0 UNK         0.4864 
      3 O          27.9407   21.5128   -3.9282 O.2       0 UNK        -0.5359 
      4 N          27.5796   21.5688   -1.7025 N.am      1 UNK        -0.4318 
      5 CA         28.8230   20.9386   -1.2337 C.3       1 UNK         0.0824 
      6 C6         28.6377   20.3550    0.1943 C.3       12 UNK        -0.0944 
      7 S7         28.0007   21.5733    1.4000 S.3       12 UNK        -0.2672 
      8 C8         29.2820   21.5218    2.6958 C.3       12 UNK         0.0333 
      9 C9         29.0779   22.6107    3.7430 C.ar      12 UNK        -0.0807 
     10 C10        30.1346   23.4573    4.0966 C.ar      12 UNK        -0.0894 
     11 C11        29.9431   24.4695    5.0424 C.ar      12 UNK        -0.0804 
     12 C12        28.6966   24.6183    5.6533 C.ar      12 UNK        -0.0824 
     13 C13        27.6223   23.8150    5.2716 C.ar      12 UNK        -0.0762 
     14 C14        27.8277   22.7891    4.3457 C.ar      12 UNK        -0.0782 
     15 C15        26.2246   24.0986    5.7976 C.3       12 UNK         0.0230 
     16 S16        25.1558   24.7477    4.4695 S.3       12 UNK        -0.2608 
     17 C17        25.5626   26.5328    4.4013 C.3       12 UNK        -0.0989 
     18 CA         26.9482   26.9186    3.7950 C.3       5 UNK         0.0716 
     19 N          27.3408   26.1429    2.6117 N.am      5 UNK        -0.4135 
     20 C          26.7254   26.1327    1.4228 C.2       4 UNK         0.5031 
     21 O          25.7130   26.7894    1.1710 O.2       4 UNK        -0.5229 
     22 CA         27.3579   25.2429    0.3289 C.3       4 UNK         0.0329 
     23 CB         26.8627   25.6089   -1.0858 C.3       4 UNK        -0.2001 
     24 N          28.8292   25.1894    0.3266 N.am      4 UNK        -0.4303 
     25 C          29.6854   26.2254    0.3256 C.2       3 UNK         0.5044 
     26 O          29.3567   27.3914    0.5361 O.2       3 UNK        -0.5152 
     27 CA         31.1593   25.9144    0.0119 C.3       3 UNK         0.0319 
     28 CB         31.9634   25.6706    1.2959 C.3       3 UNK        -0.2001 
     29 N          31.3134   24.7660   -0.8815 N.am      3 UNK        -0.4354 
     30 C          31.1039   24.7897   -2.2037 C.2       2 UNK         0.4964 
     31 O          30.8005   25.8033   -2.8331 O.2       2 UNK        -0.5047 
     32 CA         31.2440   23.4526   -2.9520 C.3       2 UNK         0.0288 
     33 CB         32.6761   22.8861   -2.8617 C.3       2 UNK        -0.2113 
     34 N          30.2372   22.4603   -2.5539 N.am      2 UNK        -0.4145 
     35 C          30.0567   21.8670   -1.3654 C.2       1 UNK         0.5006 
     36 O          30.8005   22.0504   -0.3991 O.2       1 UNK        -0.5103 
     37 C          27.1037   28.4493    3.6191 C.2       5 UNK         0.5055 
     38 O          26.4789   29.2034    4.3692 O.2       5 UNK        -0.5220 
     39 N          27.9287   28.9031    2.6618 N.am      6 UNK        -0.4450 
     40 CA         28.1999   30.3193    2.4120 C.3       6 UNK         0.0367 
     41 CB         28.6546   30.5008    0.9535 C.3       6 UNK        -0.1929 
     42 C          29.2289   30.8569    3.4216 C.2       6 UNK         0.5070 
     43 O          30.4322   30.8453    3.1477 O.2       6 UNK        -0.5237 
     44 N          28.7342   31.2934    4.5871 N.am      7 UNK        -0.4739 
     45 CA         29.5071   31.8906    5.6807 C.3       7 UNK         0.0276 
     46 CB         28.5566   32.2483    6.8337 C.3       7 UNK        -0.1927 
     47 C          30.3004   33.1280    5.2325 C.2       7 UNK         0.5013 
     48 O          29.7477   33.9835    4.5371 O.2       7 UNK        -0.5193 
     49 N          31.5833   33.1789    5.6143 N.am      8 UNK        -0.4253 
     50 CA         32.6076   34.1825    5.2903 C.3       8 UNK         0.0242 
     51 CB         32.1966   35.5960    5.7479 C.3       8 UNK        -0.2000 
     52 C          33.0532   34.1765    3.8167 C.2       8 UNK         0.4948 
     53 O          34.2433   34.3526    3.5537 O.2       8 UNK        -0.5275 
     54 N          32.1124   33.9649    2.8881 N.am      9 UNK        -0.4246 
     55 CA         32.3506   33.8507    1.4498 C.3       9 UNK         0.0261 
     56 CB         31.0083   33.9063    0.7060 C.3       9 UNK        -0.1959 
     57 C          33.1361   32.5840    1.0700 C.2       9 UNK         0.5033 
     58 O          34.0088   32.6638    0.2034 O.2       9 UNK        -0.5390 
     59 N          32.8279   31.4545    1.7213 N.am      10 UNK        -0.4215 
     60 CA         33.5168   30.1775    1.5347 C.3       10 UNK         0.0240 
     61 CB         32.6957   29.2624    0.6118 C.3       10 UNK        -0.1982 
     62 C          33.8023   29.4972    2.8785 C.2       10 UNK         0.4970 
     63 O          34.9440   29.1004    3.1146 O.2       10 UNK        -0.4916 
     64 N          32.7779   29.3673    3.7306 N.am      11 UNK        -0.4279 
     65 CA         32.8880   28.7528    5.0599 C.3       11 UNK         0.1003 
     66 C          33.5238   29.7411    6.0703 C.2       11 UNK         0.5709 
     67 N          34.6271   29.3713    6.7047 N.am      11 UNK        -0.7358 
     68 O          32.9955   30.8251    6.3114 O.2       11 UNK        -0.4999 
     69 C69        31.5207   28.2452    5.5812 C.3       12 UNK        -0.0954 
     70 S70        30.7410   27.0216    4.4830 S.3       12 UNK        -0.2268 
     71 C71        31.0468   25.4596    5.3670 C.3       12 UNK         0.0203 
     72 H72        25.2298   21.8093   -3.7957 H         1 UNK         0.0888 
     73 H73        25.3597   22.6901   -2.2717 H         1 UNK         0.0888 
     74 H74        26.0035   23.3960   -3.7551 H         1 UNK         0.0888 
     75 H75        26.9534   21.8414   -0.9577 H         1 UNK         0.3017 
     76 H76        29.0281   20.0929   -1.8936 H         1 UNK         0.0873 
     77 H77        27.9212   19.5331    0.1553 H         1 UNK         0.0745 
     78 H78        29.5654   19.9087    0.5577 H         1 UNK         0.0745 
     79 H79        30.2629   21.6220    2.2288 H         1 UNK         0.0705 
     80 H80        29.2630   20.5465    3.1836 H         1 UNK         0.0705 
     81 H81        31.1006   23.3401    3.6254 H         1 UNK         0.1334 
     82 H82        28.5460   25.4149    6.3695 H         1 UNK         0.1417 
     83 H83        26.9962   22.1610    4.0556 H         1 UNK         0.1562 
     84 H84        26.2448   24.7990    6.6339 H         1 UNK         0.0748 
     85 H85        25.7925   23.1726    6.1796 H         1 UNK         0.0748 
     86 H86        25.4690   26.9400    5.4098 H         1 UNK         0.0940 
     87 H87        24.7685   27.0065    3.8209 H         1 UNK         0.0940 
     88 H88        27.6967   26.6888    4.5457 H         1 UNK         0.0703 
     89 H89        28.1635   25.5676    2.7245 H         1 UNK         0.3081 
     90 H90        27.0151   24.2305    0.5424 H         1 UNK         0.0719 
     91 H91        27.1275   26.6342   -1.3475 H         1 UNK         0.0809 
     92 H92        27.2931   24.9508   -1.8404 H         1 UNK         0.0809 
     93 H93        25.7781   25.5209   -1.1607 H         1 UNK         0.0809 
     94 H94        29.2271   24.2683    0.2083 H         1 UNK         0.2990 
     95 H95        31.5774   26.7892   -0.4894 H         1 UNK         0.0690 
     96 H96        33.0071   25.4463    1.0757 H         1 UNK         0.0788 
     97 H97        31.5561   24.8442    1.8771 H         1 UNK         0.0788 
     98 H98        31.9549   26.5575    1.9285 H         1 UNK         0.0788 
     99 H99        31.4881   23.8590   -0.4573 H         1 UNK         0.2993 
    100 H100       31.0477   23.6645   -4.0045 H         1 UNK         0.0949 
    101 H101       32.9583   22.6254   -1.8414 H         1 UNK         0.0767 
    102 H102       32.7839   21.9912   -3.4747 H         1 UNK         0.0767 
    103 H103       33.4041   23.6142   -3.2218 H         1 UNK         0.0767 
    104 H104       29.5413   22.2380   -3.2636 H         1 UNK         0.3013 
    105 H105       28.4236   28.2417    2.0689 H         1 UNK         0.3121 
    106 H106       27.2722   30.8833    2.5315 H         1 UNK         0.0774 
    107 H107       27.9500   30.0421    0.2596 H         1 UNK         0.0815 
    108 H108       28.7149   31.5569    0.6953 H         1 UNK         0.0815 
    109 H109       29.6336   30.0595    0.7684 H         1 UNK         0.0815 
    110 H110       27.7368   31.2101    4.7328 H         1 UNK         0.2987 
    111 H111       30.2111   31.1426    6.0426 H         1 UNK         0.0949 
    112 H112       28.0317   31.3675    7.2043 H         1 UNK         0.0806 
    113 H113       29.1055   32.6749    7.6744 H         1 UNK         0.0806 
    114 H114       27.8094   32.9815    6.5266 H         1 UNK         0.0806 
    115 H115       31.9587   32.3625    6.0945 H         1 UNK         0.3010 
    116 H116       33.4827   33.8935    5.8750 H         1 UNK         0.0829 
    117 H117       31.9312   35.6091    6.8050 H         1 UNK         0.0813 
    118 H118       33.0180   36.3004    5.6110 H         1 UNK         0.0813 
    119 H119       31.3469   35.9803    5.1831 H         1 UNK         0.0813 
    120 H120       31.1540   33.8738    3.2135 H         1 UNK         0.3038 
    121 H121       32.9460   34.7124    1.1403 H         1 UNK         0.0769 
    122 H122       31.1493   33.7943   -0.3700 H         1 UNK         0.0811 
    123 H123       30.5035   34.8584    0.8704 H         1 UNK         0.0811 
    124 H124       30.3396   33.1126    1.0355 H         1 UNK         0.0811 
    125 H125       32.0569   31.4611    2.3857 H         1 UNK         0.3204 
    126 H126       34.4857   30.3495    1.0607 H         1 UNK         0.0748 
    127 H127       33.2319   28.3329    0.4182 H         1 UNK         0.0771 
    128 H128       31.7325   29.0017    1.0516 H         1 UNK         0.0771 
    129 H129       32.5070   29.7350   -0.3521 H         1 UNK         0.0771 
    130 H130       31.8671   29.7500    3.4902 H         1 UNK         0.2980 
    131 H131       33.5402   27.8809    4.9741 H         1 UNK         0.0545 
    132 H132       35.0388   30.0005    7.3756 H         1 UNK         0.3459 
    133 H133       35.0673   28.4850    6.5125 H         1 UNK         0.3459 
    134 H134       31.6261   27.8230    6.5817 H         1 UNK         0.0616 
    135 H135       30.8180   29.0701    5.6799 H         1 UNK         0.0616 
    136 H136       32.0253   25.0683    5.0849 H         1 UNK         0.0634 
    137 H137       31.0715   25.6248    6.4448 H         1 UNK         0.0634 
@<TRIPOS>BOND
     1    1    2 1    
     2    1   72 1    
     3    1   73 1    
     4    1   74 1    
     5    2    3 2    
     6    2    4 am   BACKBONE|DICT|INTERRES
     7    4    5 1    
     8    4   75 1    
     9    5    6 1    
    10    5   35 1    
    11    5   76 1    
    12    6    7 1    
    13    6   77 1    
    14    6   78 1    
    15    7    8 1    
    16    8    9 1    
    17    8   79 1    
    18    8   80 1    
    19    9   10 ar   
    20    9   14 ar   
    21   10   11 ar   
    22   10   81 1    
    23   11   12 ar   
    24   11   71 1    
    25   12   13 ar   
    26   12   82 1    
    27   13   14 ar   
    28   13   15 1    
    29   14   83 1    
    30   15   16 1    
    31   15   84 1    
    32   15   85 1    
    33   16   17 1    
    34   17   18 1    
    35   17   86 1    
    36   17   87 1    
    37   18   19 1    
    38   18   37 1    
    39   18   88 1    
    40   19   20 am   BACKBONE|DICT|INTERRES
    41   19   89 1    
    42   20   21 2    
    43   20   22 1    
    44   22   23 1    
    45   22   24 1    
    46   22   90 1    
    47   23   91 1    
    48   23   92 1    
    49   23   93 1    
    50   24   25 am   BACKBONE|DICT|INTERRES
    51   24   94 1    
    52   25   26 2    
    53   25   27 1    
    54   27   28 1    
    55   27   29 1    
    56   27   95 1    
    57   28   96 1    
    58   28   97 1    
    59   28   98 1    
    60   29   30 am   BACKBONE|DICT|INTERRES
    61   29   99 1    
    62   30   31 2    
    63   30   32 1    
    64   32   33 1    
    65   32   34 1    
    66   32  100 1    
    67   33  101 1    
    68   33  102 1    
    69   33  103 1    
    70   34   35 am   BACKBONE|DICT|INTERRES
    71   34  104 1    
    72   35   36 2    
    73   37   38 2    
    74   37   39 am   BACKBONE|DICT|INTERRES
    75   39   40 1    
    76   39  105 1    
    77   40   41 1    
    78   40   42 1    
    79   40  106 1    
    80   41  107 1    
    81   41  108 1    
    82   41  109 1    
    83   42   43 2    
    84   42   44 am   BACKBONE|DICT|INTERRES
    85   44   45 1    
    86   44  110 1    
    87   45   46 1    
    88   45   47 1    
    89   45  111 1    
    90   46  112 1    
    91   46  113 1    
    92   46  114 1    
    93   47   48 2    
    94   47   49 am   BACKBONE|DICT|INTERRES
    95   49   50 1    
    96   49  115 1    
    97   50   51 1    
    98   50   52 1    
    99   50  116 1    
   100   51  117 1    
   101   51  118 1    
   102   51  119 1    
   103   52   53 2    
   104   52   54 am   BACKBONE|DICT|INTERRES
   105   54   55 1    
   106   54  120 1    
   107   55   56 1    
   108   55   57 1    
   109   55  121 1    
   110   56  122 1    
   111   56  123 1    
   112   56  124 1    
   113   57   58 2    
   114   57   59 am   BACKBONE|DICT|INTERRES
   115   59   60 1    
   116   59  125 1    
   117   60   61 1    
   118   60   62 1    
   119   60  126 1    
   120   61  127 1    
   121   61  128 1    
   122   61  129 1    
   123   62   63 2    
   124   62   64 am   BACKBONE|DICT|INTERRES
   125   64   65 1    
   126   64  130 1    
   127   65   66 1    
   128   65   69 1    
   129   65  131 1    
   130   66   67 am   BACKBONE|DICT|INTERRES
   131   66   68 2    
   132   67  132 1    
   133   67  133 1    
   134   69   70 1    
   135   69  134 1    
   136   69  135 1    
   137   70   71 1    
   138   71  136 1    
   139   71  137 1    
@<TRIPOS>SUBSTRUCTURE
     1 UNK         1 GROUP             0       ****    0 ROOT    
