@<TRIPOS>MOLECULE
3R136
137   139    1
SMALL
USER_CHARGES


@<TRIPOS>ATOM
      1 CA         29.3188   19.1039   -0.9550 C.3       0 UNK        -0.1979 
      2 C          29.7796   20.5384   -0.7469 C.2       0 UNK         0.4864 
      3 O          28.9446   21.4367   -0.6330 O.2       0 UNK        -0.5359 
      4 N          31.1011   20.7622   -0.7130 N.am      1 UNK        -0.4318 
      5 CA         31.8130   22.0300   -0.4646 C.3       1 UNK         0.0824 
      6 C6         31.5096   22.6645    0.9212 C.3       12 UNK        -0.0944 
      7 S7         31.9826   21.5693    2.3004 S.3       12 UNK        -0.2672 
      8 C8         30.3587   21.1645    3.0340 C.3       12 UNK         0.0333 
      9 C9         29.6795   22.3040    3.7978 C.ar      12 UNK        -0.0807 
     10 C10        30.4078   23.3340    4.4097 C.ar      12 UNK        -0.0894 
     11 C11        29.7540   24.3318    5.1382 C.ar      12 UNK        -0.0804 
     12 C12        28.3669   24.2854    5.2824 C.ar      12 UNK        -0.0824 
     13 C13        27.6235   23.2821    4.6602 C.ar      12 UNK        -0.0762 
     14 C14        28.2848   22.2939    3.9231 C.ar      12 UNK        -0.0782 
     15 C15        26.1074   23.2690    4.7859 C.3       12 UNK         0.0230 
     16 S16        25.3170   24.2526    3.4721 S.3       12 UNK        -0.2608 
     17 C17        25.5124   25.9710    4.0735 C.3       12 UNK        -0.0989 
     18 CA         26.6738   26.7482    3.3880 C.3       5 UNK         0.0716 
     19 N          26.6429   26.6725    1.9258 N.am      5 UNK        -0.4135 
     20 C          25.7446   27.2097    1.0877 C.2       4 UNK         0.5031 
     21 O          24.7148   27.7790    1.4531 O.2       4 UNK        -0.5229 
     22 CA         26.0806   27.1163   -0.4189 C.3       4 UNK         0.0329 
     23 CB         25.5968   28.3572   -1.1991 C.3       4 UNK        -0.2001 
     24 N          27.5061   26.8573   -0.6926 N.am      4 UNK        -0.4303 
     25 C          28.5540   27.6096   -0.3133 C.2       3 UNK         0.5044 
     26 O          28.4389   28.6715    0.2976 O.2       3 UNK        -0.5152 
     27 CA         29.9645   27.0450   -0.5561 C.3       3 UNK         0.0319 
     28 CB         30.6762   26.8058    0.7889 C.3       3 UNK        -0.2001 
     29 N          29.9573   25.7790   -1.2909 N.am      3 UNK        -0.4354 
     30 C          30.0230   25.6436   -2.6224 C.2       2 UNK         0.4964 
     31 O          30.0531   26.5961   -3.4026 O.2       2 UNK        -0.5047 
     32 CA         30.0352   24.1983   -3.1677 C.3       2 UNK         0.0288 
     33 CB         30.8371   24.0626   -4.4800 C.3       2 UNK        -0.2113 
     34 N          30.4650   23.2020   -2.1733 N.am      2 UNK        -0.4145 
     35 C          31.6652   23.0847   -1.5844 C.2       1 UNK         0.5006 
     36 O          32.6375   23.7850   -1.8696 O.2       1 UNK        -0.5103 
     37 C          26.8165   28.2004    3.9136 C.2       5 UNK         0.5055 
     38 O          26.4229   28.4701    5.0506 O.2       5 UNK        -0.5220 
     39 N          27.3530   29.1175    3.0922 N.am      6 UNK        -0.4450 
     40 CA         27.4457   30.5428    3.3984 C.3       6 UNK         0.0367 
     41 CB         27.2620   31.3460    2.0995 C.3       6 UNK        -0.1929 
     42 C          28.7958   30.8836    4.0389 C.2       6 UNK         0.5070 
     43 O          29.8421   30.5353    3.4889 O.2       6 UNK        -0.5237 
     44 N          28.7552   31.6501    5.1371 N.am      7 UNK        -0.4739 
     45 CA         29.9322   32.2144    5.8146 C.3       7 UNK         0.0276 
     46 CB         29.5028   32.7874    7.1748 C.3       7 UNK        -0.1927 
     47 C          30.6736   33.2816    4.9845 C.2       7 UNK         0.5013 
     48 O          31.8294   33.5844    5.2784 O.2       7 UNK        -0.5193 
     49 N          30.0028   33.8230    3.9584 N.am      8 UNK        -0.4253 
     50 CA         30.5847   34.6995    2.9413 C.3       8 UNK         0.0242 
     51 CB         29.4499   35.4641    2.2386 C.3       8 UNK        -0.2000 
     52 C          31.4441   33.9432    1.9077 C.2       8 UNK         0.4948 
     53 O          32.1979   34.5929    1.1809 O.2       8 UNK        -0.5275 
     54 N          31.3081   32.6104    1.8386 N.am      9 UNK        -0.4246 
     55 CA         32.0680   31.7279    0.9567 C.3       9 UNK         0.0261 
     56 CB         31.0940   30.7440    0.2768 C.3       9 UNK        -0.1959 
     57 C          33.1977   31.0488    1.7551 C.2       9 UNK         0.5033 
     58 O          33.8860   31.7215    2.5251 O.2       9 UNK        -0.5390 
     59 N          33.4053   29.7434    1.5369 N.am      10 UNK        -0.4215 
     60 CA         34.4998   28.9631    2.1223 C.3       10 UNK         0.0240 
     61 CB         34.6895   27.6743    1.3045 C.3       10 UNK        -0.1982 
     62 C          34.3234   28.6246    3.6144 C.2       10 UNK         0.4970 
     63 O          35.3168   28.2846    4.2591 O.2       10 UNK        -0.4916 
     64 N          33.0886   28.6794    4.1312 N.am      11 UNK        -0.4279 
     65 CA         32.7618   28.3467    5.5262 C.3       11 UNK         0.1003 
     66 C          33.3524   29.3589    6.5450 C.2       11 UNK         0.5709 
     67 N          33.7616   28.8917    7.7170 N.am      11 UNK        -0.7358 
     68 O          33.4004   30.5626    6.3037 O.2       11 UNK        -0.4999 
     69 C69        31.2367   28.1884    5.7417 C.3       12 UNK        -0.0954 
     70 S70        30.4941   26.9274    4.6585 S.3       12 UNK        -0.2268 
     71 C71        30.5331   25.4786    5.7554 C.3       12 UNK         0.0203 
     72 H72        30.1577   18.4138   -1.0420 H         1 UNK         0.0888 
     73 H73        28.7028   18.7842   -0.1150 H         1 UNK         0.0888 
     74 H74        28.7219   19.0297   -1.8635 H         1 UNK         0.0888 
     75 H75        31.7154   19.9708   -0.8476 H         1 UNK         0.3017 
     76 H76        32.8704   21.7591   -0.4669 H         1 UNK         0.0873 
     77 H77        32.0703   23.5929    1.0482 H         1 UNK         0.0745 
     78 H78        30.4567   22.9382    1.0080 H         1 UNK         0.0745 
     79 H79        30.4972   20.3316    3.7244 H         1 UNK         0.0705 
     80 H80        29.7023   20.8000    2.2428 H         1 UNK         0.0705 
     81 H81        31.4845   23.3681    4.3226 H         1 UNK         0.1334 
     82 H82        27.8634   25.0540    5.8527 H         1 UNK         0.1417 
     83 H83        27.7094   21.5092    3.4503 H         1 UNK         0.1562 
     84 H84        25.7982   23.6343    5.7664 H         1 UNK         0.0748 
     85 H85        25.7419   22.2431    4.7195 H         1 UNK         0.0748 
     86 H86        25.6466   25.9558    5.1562 H         1 UNK         0.0940 
     87 H87        24.5672   26.4893    3.9026 H         1 UNK         0.0940 
     88 H88        27.6075   26.2632    3.6662 H         1 UNK         0.0703 
     89 H89        27.4352   26.2097    1.5080 H         1 UNK         0.3081 
     90 H90        25.5332   26.2514   -0.7964 H         1 UNK         0.0719 
     91 H91        25.8355   28.2775   -2.2595 H         1 UNK         0.0809 
     92 H92        26.0496   29.2744   -0.8209 H         1 UNK         0.0809 
     93 H93        24.5152   28.4737   -1.1201 H         1 UNK         0.0809 
     94 H94        27.7071   25.9944   -1.1774 H         1 UNK         0.2990 
     95 H95        30.5263   27.7929   -1.1194 H         1 UNK         0.0690 
     96 H96        31.6867   26.4292    0.6357 H         1 UNK         0.0788 
     97 H97        30.1449   26.0819    1.4084 H         1 UNK         0.0788 
     98 H98        30.7561   27.7249    1.3702 H         1 UNK         0.0788 
     99 H99        29.9283   24.9372   -0.7351 H         1 UNK         0.2993 
    100 H100       28.9951   23.9613   -3.3964 H         1 UNK         0.0949 
    101 H101       31.8765   24.3676   -4.3554 H         1 UNK         0.0767 
    102 H102       30.8296   23.0354   -4.8447 H         1 UNK         0.0767 
    103 H103       30.4097   24.6866   -5.2659 H         1 UNK         0.0767 
    104 H104       29.7357   22.5869   -1.8132 H         1 UNK         0.3013 
    105 H105       27.7142   28.8356    2.1856 H         1 UNK         0.3121 
    106 H106       26.6396   30.8223    4.0805 H         1 UNK         0.0774 
    107 H107       27.2643   32.4186    2.2960 H         1 UNK         0.0815 
    108 H108       28.0589   31.1441    1.3821 H         1 UNK         0.0815 
    109 H109       26.3139   31.1066    1.6173 H         1 UNK         0.0815 
    110 H110       27.8545   31.8953    5.5247 H         1 UNK         0.2987 
    111 H111       30.6440   31.4068    5.9939 H         1 UNK         0.0949 
    112 H112       29.0524   32.0201    7.8047 H         1 UNK         0.0806 
    113 H113       30.3610   33.1858    7.7182 H         1 UNK         0.0806 
    114 H114       28.7827   33.5989    7.0631 H         1 UNK         0.0806 
    115 H115       29.0458   33.5359    3.8188 H         1 UNK         0.3010 
    116 H116       31.2329   35.4253    3.4373 H         1 UNK         0.0829 
    117 H117       28.8667   36.0512    2.9484 H         1 UNK         0.0813 
    118 H118       29.8481   36.1587    1.4976 H         1 UNK         0.0813 
    119 H119       28.7688   34.7893    1.7183 H         1 UNK         0.0813 
    120 H120       30.7174   32.1383    2.5147 H         1 UNK         0.3038 
    121 H121       32.5497   32.3098    0.1685 H         1 UNK         0.0769 
    122 H122       30.2967   31.2782   -0.2404 H         1 UNK         0.0811 
    123 H123       30.6197   30.0797    0.9987 H         1 UNK         0.0811 
    124 H124       31.5952   30.1308   -0.4726 H         1 UNK         0.0811 
    125 H125       32.8002   29.2639    0.8872 H         1 UNK         0.3204 
    126 H126       35.4150   29.5529    2.0345 H         1 UNK         0.0748 
    127 H127       35.5570   27.1146    1.6571 H         1 UNK         0.0771 
    128 H128       33.8265   27.0137    1.3855 H         1 UNK         0.0771 
    129 H129       34.8545   27.8898    0.2486 H         1 UNK         0.0771 
    130 H130       32.3209   28.9951    3.5576 H         1 UNK         0.2980 
    131 H131       33.2203   27.3768    5.7303 H         1 UNK         0.0545 
    132 H132       34.1328   29.5368    8.3968 H         1 UNK         0.3459 
    133 H133       33.7173   27.9081    7.9332 H         1 UNK         0.3459 
    134 H134       31.0169   27.9375    6.7809 H         1 UNK         0.0616 
    135 H135       30.7265   29.1309    5.5506 H         1 UNK         0.0616 
    136 H136       30.1019   25.7356    6.7241 H         1 UNK         0.0634 
    137 H137       31.5689   25.1891    5.9387 H         1 UNK         0.0634 
@<TRIPOS>BOND
     1    1    2 1    
     2    1   72 1    
     3    1   73 1    
     4    1   74 1    
     5    2    3 2    
     6    2    4 am   BACKBONE|DICT|INTERRES
     7    4    5 1    
     8    4   75 1    
     9    5    6 1    
    10    5   35 1    
    11    5   76 1    
    12    6    7 1    
    13    6   77 1    
    14    6   78 1    
    15    7    8 1    
    16    8    9 1    
    17    8   79 1    
    18    8   80 1    
    19    9   10 ar   
    20    9   14 ar   
    21   10   11 ar   
    22   10   81 1    
    23   11   12 ar   
    24   11   71 1    
    25   12   13 ar   
    26   12   82 1    
    27   13   14 ar   
    28   13   15 1    
    29   14   83 1    
    30   15   16 1    
    31   15   84 1    
    32   15   85 1    
    33   16   17 1    
    34   17   18 1    
    35   17   86 1    
    36   17   87 1    
    37   18   19 1    
    38   18   37 1    
    39   18   88 1    
    40   19   20 am   BACKBONE|DICT|INTERRES
    41   19   89 1    
    42   20   21 2    
    43   20   22 1    
    44   22   23 1    
    45   22   24 1    
    46   22   90 1    
    47   23   91 1    
    48   23   92 1    
    49   23   93 1    
    50   24   25 am   BACKBONE|DICT|INTERRES
    51   24   94 1    
    52   25   26 2    
    53   25   27 1    
    54   27   28 1    
    55   27   29 1    
    56   27   95 1    
    57   28   96 1    
    58   28   97 1    
    59   28   98 1    
    60   29   30 am   BACKBONE|DICT|INTERRES
    61   29   99 1    
    62   30   31 2    
    63   30   32 1    
    64   32   33 1    
    65   32   34 1    
    66   32  100 1    
    67   33  101 1    
    68   33  102 1    
    69   33  103 1    
    70   34   35 am   BACKBONE|DICT|INTERRES
    71   34  104 1    
    72   35   36 2    
    73   37   38 2    
    74   37   39 am   BACKBONE|DICT|INTERRES
    75   39   40 1    
    76   39  105 1    
    77   40   41 1    
    78   40   42 1    
    79   40  106 1    
    80   41  107 1    
    81   41  108 1    
    82   41  109 1    
    83   42   43 2    
    84   42   44 am   BACKBONE|DICT|INTERRES
    85   44   45 1    
    86   44  110 1    
    87   45   46 1    
    88   45   47 1    
    89   45  111 1    
    90   46  112 1    
    91   46  113 1    
    92   46  114 1    
    93   47   48 2    
    94   47   49 am   BACKBONE|DICT|INTERRES
    95   49   50 1    
    96   49  115 1    
    97   50   51 1    
    98   50   52 1    
    99   50  116 1    
   100   51  117 1    
   101   51  118 1    
   102   51  119 1    
   103   52   53 2    
   104   52   54 am   BACKBONE|DICT|INTERRES
   105   54   55 1    
   106   54  120 1    
   107   55   56 1    
   108   55   57 1    
   109   55  121 1    
   110   56  122 1    
   111   56  123 1    
   112   56  124 1    
   113   57   58 2    
   114   57   59 am   BACKBONE|DICT|INTERRES
   115   59   60 1    
   116   59  125 1    
   117   60   61 1    
   118   60   62 1    
   119   60  126 1    
   120   61  127 1    
   121   61  128 1    
   122   61  129 1    
   123   62   63 2    
   124   62   64 am   BACKBONE|DICT|INTERRES
   125   64   65 1    
   126   64  130 1    
   127   65   66 1    
   128   65   69 1    
   129   65  131 1    
   130   66   67 am   BACKBONE|DICT|INTERRES
   131   66   68 2    
   132   67  132 1    
   133   67  133 1    
   134   69   70 1    
   135   69  134 1    
   136   69  135 1    
   137   70   71 1    
   138   71  136 1    
   139   71  137 1    
@<TRIPOS>SUBSTRUCTURE
     1 UNK         1 GROUP             0       ****    0 ROOT    
