@<TRIPOS>MOLECULE
3R136
137   139    1
SMALL
USER_CHARGES


@<TRIPOS>ATOM
      1 CA         26.4325   22.5742   -4.4630 C.3       0 UNK        -0.1979 
      2 C          26.6966   23.4686   -3.2615 C.2       0 UNK         0.4864 
      3 O          25.7551   24.0282   -2.6974 O.2       0 UNK        -0.5359 
      4 N          27.9689   23.5967   -2.8555 N.am      1 UNK        -0.4318 
      5 CA         28.4252   24.4203   -1.7260 C.3       1 UNK         0.0824 
      6 C6         29.9701   24.4773   -1.6283 C.3       12 UNK        -0.0944 
      7 S7         30.7464   22.8372   -1.4166 S.3       12 UNK        -0.2672 
      8 C8         32.3219   23.2865   -0.6194 C.3       12 UNK         0.0333 
      9 C9         32.2234   23.6973    0.8511 C.ar      12 UNK        -0.0807 
     10 C10        33.1380   24.6345    1.3435 C.ar      12 UNK        -0.0894 
     11 C11        33.1800   24.9535    2.7034 C.ar      12 UNK        -0.0804 
     12 C12        32.2824   24.3334    3.5758 C.ar      12 UNK        -0.0824 
     13 C13        31.3318   23.4257    3.0998 C.ar      12 UNK        -0.0762 
     14 C14        31.3107   23.1048    1.7368 C.ar      12 UNK        -0.0782 
     15 C15        30.3665   22.7610    4.0761 C.3       12 UNK         0.0230 
     16 S16        28.7193   23.5462    4.1059 S.3       12 UNK        -0.2608 
     17 C17        29.0939   25.2685    4.5802 C.3       12 UNK        -0.0989 
     18 CA         29.0697   26.1888    3.3331 C.3       5 UNK         0.0716 
     19 N          27.7341   26.3484    2.7458 N.am      5 UNK        -0.4135 
     20 C          26.6983   27.0369    3.2479 C.2       4 UNK         0.5031 
     21 O          26.6919   27.5665    4.3594 O.2       4 UNK        -0.5229 
     22 CA         25.4590   27.1889    2.3541 C.3       4 UNK         0.0329 
     23 CB         25.6813   28.3016    1.3146 C.3       4 UNK        -0.2001 
     24 N          25.0968   25.9461    1.6666 N.am      4 UNK        -0.4303 
     25 C          23.8581   25.4312    1.6292 C.2       3 UNK         0.5044 
     26 O          22.8916   25.9349    2.2038 O.2       3 UNK        -0.5152 
     27 CA         23.6292   24.1517    0.7984 C.3       3 UNK         0.0319 
     28 CB         22.9429   24.4952   -0.5337 C.3       3 UNK        -0.2001 
     29 N          24.8539   23.4027    0.5174 N.am      3 UNK        -0.4354 
     30 C          25.5506   22.7098    1.4298 C.2       2 UNK         0.4964 
     31 O          25.1730   22.5433    2.5896 O.2       2 UNK        -0.5047 
     32 CA         26.9019   22.1138    0.9894 C.3       2 UNK         0.0288 
     33 CB         26.7731   20.5992    0.7608 C.3       2 UNK        -0.2113 
     34 N          27.4939   22.7237   -0.2058 N.am      2 UNK        -0.4145 
     35 C          27.7993   24.0197   -0.3753 C.2       1 UNK         0.5006 
     36 O          27.5734   24.8944    0.4607 O.2       1 UNK        -0.5103 
     37 C          29.7357   27.5600    3.5557 C.2       5 UNK         0.5055 
     38 O          29.9890   27.9656    4.6930 O.2       5 UNK        -0.5220 
     39 N          29.9791   28.2591    2.4426 N.am      6 UNK        -0.4450 
     40 CA         30.6578   29.5449    2.3904 C.3       6 UNK         0.0367 
     41 CB         29.6153   30.6721    2.2842 C.3       6 UNK        -0.1929 
     42 C          31.5930   29.5478    1.1810 C.2       6 UNK         0.5070 
     43 O          31.2154   29.0426    0.1211 O.2       6 UNK        -0.5237 
     44 N          32.7778   30.1384    1.3587 N.am      7 UNK        -0.4739 
     45 CA         33.7505   30.3859    0.2906 C.3       7 UNK         0.0276 
     46 CB         35.1694   30.1961    0.8505 C.3       7 UNK        -0.1927 
     47 C          33.5817   31.8012   -0.2865 C.2       7 UNK         0.5013 
     48 O          33.8179   32.0100   -1.4765 O.2       7 UNK        -0.5193 
     49 N          33.1572   32.7315    0.5742 N.am      8 UNK        -0.4253 
     50 CA         32.8312   34.1304    0.3068 C.3       8 UNK         0.0242 
     51 CB         34.0720   34.9507   -0.1026 C.3       8 UNK        -0.2000 
     52 C          32.1907   34.6543    1.5932 C.2       8 UNK         0.4948 
     53 O          31.0155   35.0208    1.5946 O.2       8 UNK        -0.5275 
     54 N          32.9555   34.5505    2.6880 N.am      9 UNK        -0.4246 
     55 CA         32.4353   34.4356    4.0482 C.3       9 UNK         0.0261 
     56 CB         33.5102   34.9263    5.0327 C.3       9 UNK        -0.1959 
     57 C          32.0772   32.9631    4.3242 C.2       9 UNK         0.5033 
     58 O          32.5161   32.0757    3.5806 O.2       9 UNK        -0.5390 
     59 N          31.2969   32.7336    5.3878 N.am      10 UNK        -0.4215 
     60 CA         30.9031   31.4063    5.8676 C.3       10 UNK         0.0240 
     61 CB         29.8668   31.5605    6.9924 C.3       10 UNK        -0.1982 
     62 C          32.1097   30.5867    6.3557 C.2       10 UNK         0.4970 
     63 O          33.0079   31.1455    6.9902 O.2       10 UNK        -0.4916 
     64 N          32.0889   29.2794    6.0778 N.am      11 UNK        -0.4279 
     65 CA         33.1304   28.3240    6.4857 C.3       11 UNK         0.1003 
     66 C          33.0673   27.9124    7.9859 C.2       11 UNK         0.5709 
     67 N          32.0072   28.2257    8.7224 N.am      11 UNK        -0.7358 
     68 O          34.0060   27.3039    8.4943 O.2       11 UNK        -0.4999 
     69 C69        33.1357   27.0751    5.5679 C.3       12 UNK        -0.0954 
     70 S70        33.5215   27.4830    3.8302 S.3       12 UNK        -0.2268 
     71 C71        34.2361   25.9193    3.2299 C.3       12 UNK         0.0203 
     72 H72        25.7611   21.7621   -4.1853 H         1 UNK         0.0888 
     73 H73        25.9617   23.1484   -5.2604 H         1 UNK         0.0888 
     74 H74        27.3503   22.1370   -4.8559 H         1 UNK         0.0888 
     75 H75        28.6993   23.1016   -3.3484 H         1 UNK         0.3017 
     76 H76        28.0763   25.4355   -1.9277 H         1 UNK         0.0873 
     77 H77        30.2735   25.1316   -0.8079 H         1 UNK         0.0745 
     78 H78        30.3796   24.9311   -2.5322 H         1 UNK         0.0745 
     79 H79        32.7879   24.0794   -1.2072 H         1 UNK         0.0705 
     80 H80        32.9906   22.4272   -0.6831 H         1 UNK         0.0705 
     81 H81        33.8515   25.0887    0.6692 H         1 UNK         0.1334 
     82 H82        32.3301   24.5490    4.6326 H         1 UNK         0.1417 
     83 H83        30.6006   22.3738    1.3752 H         1 UNK         0.1562 
     84 H84        30.7801   22.7665    5.0859 H         1 UNK         0.0748 
     85 H85        30.2462   21.7104    3.8078 H         1 UNK         0.0748 
     86 H86        30.0627   25.2988    5.0793 H         1 UNK         0.0940 
     87 H87        28.3673   25.6022    5.3225 H         1 UNK         0.0940 
     88 H88        29.6723   25.7044    2.5627 H         1 UNK         0.0703 
     89 H89        27.6311   25.9078    1.8324 H         1 UNK         0.3081 
     90 H90        24.6450   27.5038    3.0105 H         1 UNK         0.0719 
     91 H91        25.9722   29.2362    1.7966 H         1 UNK         0.0809 
     92 H92        26.4671   28.0410    0.6043 H         1 UNK         0.0809 
     93 H93        24.7711   28.4991    0.7482 H         1 UNK         0.0809 
     94 H94        25.8419   25.4548    1.1832 H         1 UNK         0.2990 
     95 H95        22.9591   23.5066    1.3707 H         1 UNK         0.0690 
     96 H96        23.5706   25.1342   -1.1567 H         1 UNK         0.0788 
     97 H97        22.0033   25.0236   -0.3661 H         1 UNK         0.0788 
     98 H98        22.7106   23.5960   -1.1047 H         1 UNK         0.0788 
     99 H99        25.2306   23.4878   -0.4187 H         1 UNK         0.2993 
    100 H100       27.6020   22.2744    1.8090 H         1 UNK         0.0949 
    101 H101       26.1094   20.3730   -0.0749 H         1 UNK         0.0767 
    102 H102       27.7424   20.1445    0.5550 H         1 UNK         0.0767 
    103 H103       26.3671   20.1033    1.6439 H         1 UNK         0.0767 
    104 H104       27.7204   22.0951   -0.9627 H         1 UNK         0.3013 
    105 H105       29.7871   27.8493    1.5375 H         1 UNK         0.3121 
    106 H106       31.2633   29.6814    3.2872 H         1 UNK         0.0774 
    107 H107       30.0970   31.6500    2.2519 H         1 UNK         0.0815 
    108 H108       29.0113   30.5765    1.3811 H         1 UNK         0.0815 
    109 H109       28.9377   30.6693    3.1379 H         1 UNK         0.0815 
    110 H110       32.9718   30.5524    2.2658 H         1 UNK         0.2987 
    111 H111       33.6047   29.6715   -0.5230 H         1 UNK         0.0949 
    112 H112       35.9197   30.3621    0.0762 H         1 UNK         0.0806 
    113 H113       35.3807   30.8895    1.6657 H         1 UNK         0.0806 
    114 H114       35.3114   29.1833    1.2285 H         1 UNK         0.0806 
    115 H115       32.9516   32.4291    1.5215 H         1 UNK         0.3010 
    116 H116       32.0894   34.1724   -0.4933 H         1 UNK         0.0829 
    117 H117       34.4556   34.6332   -1.0720 H         1 UNK         0.0813 
    118 H118       33.8262   36.0100   -0.1883 H         1 UNK         0.0813 
    119 H119       34.8837   34.8592    0.6196 H         1 UNK         0.0813 
    120 H120       33.9030   34.2245    2.5629 H         1 UNK         0.3038 
    121 H121       31.5383   35.0492    4.1569 H         1 UNK         0.0769 
    122 H122       33.7966   35.9574    4.8243 H         1 UNK         0.0811 
    123 H123       33.1477   34.8946    6.0609 H         1 UNK         0.0811 
    124 H124       34.4109   34.3125    4.9875 H         1 UNK         0.0811 
    125 H125       31.0127   33.5178    5.9567 H         1 UNK         0.3204 
    126 H126       30.4269   30.8778    5.0427 H         1 UNK         0.0748 
    127 H127       28.9891   32.1101    6.6515 H         1 UNK         0.0771 
    128 H128       29.5200   30.5860    7.3390 H         1 UNK         0.0771 
    129 H129       30.2803   32.0861    7.8544 H         1 UNK         0.0771 
    130 H130       31.2993   28.8764    5.5751 H         1 UNK         0.2980 
    131 H131       34.0957   28.8189    6.3614 H         1 UNK         0.0545 
    132 H132       31.9835   27.9569    9.6933 H         1 UNK         0.3459 
    133 H133       31.2305   28.7191    8.3142 H         1 UNK         0.3459 
    134 H134       33.8699   26.3490    5.9210 H         1 UNK         0.0616 
    135 H135       32.1653   26.5802    5.6079 H         1 UNK         0.0616 
    136 H136       34.8166   25.4386    4.0181 H         1 UNK         0.0634 
    137 H137       34.9499   26.1618    2.4412 H         1 UNK         0.0634 
@<TRIPOS>BOND
     1    1    2 1    
     2    1   72 1    
     3    1   73 1    
     4    1   74 1    
     5    2    3 2    
     6    2    4 am   BACKBONE|DICT|INTERRES
     7    4    5 1    
     8    4   75 1    
     9    5    6 1    
    10    5   35 1    
    11    5   76 1    
    12    6    7 1    
    13    6   77 1    
    14    6   78 1    
    15    7    8 1    
    16    8    9 1    
    17    8   79 1    
    18    8   80 1    
    19    9   10 ar   
    20    9   14 ar   
    21   10   11 ar   
    22   10   81 1    
    23   11   12 ar   
    24   11   71 1    
    25   12   13 ar   
    26   12   82 1    
    27   13   14 ar   
    28   13   15 1    
    29   14   83 1    
    30   15   16 1    
    31   15   84 1    
    32   15   85 1    
    33   16   17 1    
    34   17   18 1    
    35   17   86 1    
    36   17   87 1    
    37   18   19 1    
    38   18   37 1    
    39   18   88 1    
    40   19   20 am   BACKBONE|DICT|INTERRES
    41   19   89 1    
    42   20   21 2    
    43   20   22 1    
    44   22   23 1    
    45   22   24 1    
    46   22   90 1    
    47   23   91 1    
    48   23   92 1    
    49   23   93 1    
    50   24   25 am   BACKBONE|DICT|INTERRES
    51   24   94 1    
    52   25   26 2    
    53   25   27 1    
    54   27   28 1    
    55   27   29 1    
    56   27   95 1    
    57   28   96 1    
    58   28   97 1    
    59   28   98 1    
    60   29   30 am   BACKBONE|DICT|INTERRES
    61   29   99 1    
    62   30   31 2    
    63   30   32 1    
    64   32   33 1    
    65   32   34 1    
    66   32  100 1    
    67   33  101 1    
    68   33  102 1    
    69   33  103 1    
    70   34   35 am   BACKBONE|DICT|INTERRES
    71   34  104 1    
    72   35   36 2    
    73   37   38 2    
    74   37   39 am   BACKBONE|DICT|INTERRES
    75   39   40 1    
    76   39  105 1    
    77   40   41 1    
    78   40   42 1    
    79   40  106 1    
    80   41  107 1    
    81   41  108 1    
    82   41  109 1    
    83   42   43 2    
    84   42   44 am   BACKBONE|DICT|INTERRES
    85   44   45 1    
    86   44  110 1    
    87   45   46 1    
    88   45   47 1    
    89   45  111 1    
    90   46  112 1    
    91   46  113 1    
    92   46  114 1    
    93   47   48 2    
    94   47   49 am   BACKBONE|DICT|INTERRES
    95   49   50 1    
    96   49  115 1    
    97   50   51 1    
    98   50   52 1    
    99   50  116 1    
   100   51  117 1    
   101   51  118 1    
   102   51  119 1    
   103   52   53 2    
   104   52   54 am   BACKBONE|DICT|INTERRES
   105   54   55 1    
   106   54  120 1    
   107   55   56 1    
   108   55   57 1    
   109   55  121 1    
   110   56  122 1    
   111   56  123 1    
   112   56  124 1    
   113   57   58 2    
   114   57   59 am   BACKBONE|DICT|INTERRES
   115   59   60 1    
   116   59  125 1    
   117   60   61 1    
   118   60   62 1    
   119   60  126 1    
   120   61  127 1    
   121   61  128 1    
   122   61  129 1    
   123   62   63 2    
   124   62   64 am   BACKBONE|DICT|INTERRES
   125   64   65 1    
   126   64  130 1    
   127   65   66 1    
   128   65   69 1    
   129   65  131 1    
   130   66   67 am   BACKBONE|DICT|INTERRES
   131   66   68 2    
   132   67  132 1    
   133   67  133 1    
   134   69   70 1    
   135   69  134 1    
   136   69  135 1    
   137   70   71 1    
   138   71  136 1    
   139   71  137 1    
@<TRIPOS>SUBSTRUCTURE
     1 UNK         1 GROUP             0       ****    0 ROOT    
