@<TRIPOS>MOLECULE
3R136
137   139    1
SMALL
USER_CHARGES


@<TRIPOS>ATOM
      1 CA         24.3692   26.0252    3.1812 C.3       0 UNK        -0.1979 
      2 C          25.1385   24.7148    3.1135 C.2       0 UNK         0.4864 
      3 O          24.5270   23.6443    3.0885 O.2       0 UNK        -0.5359 
      4 N          26.4758   24.7859    3.0889 N.am      1 UNK        -0.4318 
      5 CA         27.3712   23.6358    2.9361 C.3       1 UNK         0.0824 
      6 C6         28.7877   23.9404    3.4920 C.3       12 UNK        -0.0944 
      7 S7         29.8729   22.4670    3.5016 S.3       12 UNK        -0.2672 
      8 C8         31.5289   23.1712    3.8341 C.3       12 UNK         0.0333 
      9 C9         32.0855   24.1476    2.7914 C.ar      12 UNK        -0.0807 
     10 C10        33.1969   24.9253    3.1354 C.ar      12 UNK        -0.0894 
     11 C11        33.7394   25.8488    2.2358 C.ar      12 UNK        -0.0804 
     12 C12        33.1597   25.9912    0.9714 C.ar      12 UNK        -0.0824 
     13 C13        32.0362   25.2411    0.6177 C.ar      12 UNK        -0.0762 
     14 C14        31.5281   24.2988    1.5155 C.ar      12 UNK        -0.0782 
     15 C15        31.3236   25.4953   -0.7055 C.3       12 UNK         0.0230 
     16 S16        30.4693   27.1123   -0.7308 S.3       12 UNK        -0.2608 
     17 C17        29.6758   27.1357    0.9094 C.3       12 UNK        -0.0989 
     18 CA         28.6603   28.2865    1.0876 C.3       5 UNK         0.0716 
     19 N          27.4730   28.0839    0.2668 N.am      5 UNK        -0.4135 
     20 C          26.8512   29.0003   -0.4798 C.2       4 UNK         0.5031 
     21 O          27.2352   30.1662   -0.5910 O.2       4 UNK        -0.5229 
     22 CA         25.5911   28.5221   -1.2407 C.3       4 UNK         0.0329 
     23 CB         25.0492   29.5832   -2.2172 C.3       4 UNK        -0.2001 
     24 N          25.8138   27.2697   -1.9764 N.am      4 UNK        -0.4303 
     25 C          25.9216   26.0571   -1.4183 C.2       3 UNK         0.5044 
     26 O          25.7693   25.8651   -0.2082 O.2       3 UNK        -0.5152 
     27 CA         26.3209   24.8966   -2.3478 C.3       3 UNK         0.0319 
     28 CB         27.6172   25.2117   -3.1179 C.3       3 UNK        -0.2001 
     29 N          26.5515   23.6966   -1.5499 N.am      3 UNK        -0.4354 
     30 C          25.6468   22.7582   -1.2626 C.2       2 UNK         0.4964 
     31 O          24.5354   22.6850   -1.7887 O.2       2 UNK        -0.5047 
     32 CA         26.0472   21.7362   -0.1843 C.3       2 UNK         0.0288 
     33 CB         27.1893   20.8167   -0.6633 C.3       2 UNK        -0.2113 
     34 N          26.3511   22.3456    1.1199 N.am      2 UNK        -0.4145 
     35 C          27.3587   23.1643    1.4638 C.2       1 UNK         0.5006 
     36 O          28.2236   23.5636    0.6802 O.2       1 UNK        -0.5103 
     37 C          28.2120   28.3371    2.5544 C.2       5 UNK         0.5055 
     38 O          27.4153   27.4929    2.9717 O.2       5 UNK        -0.5220 
     39 N          28.7785   29.2704    3.3275 N.am      6 UNK        -0.4450 
     40 CA         28.5005   29.4452    4.7596 C.3       6 UNK         0.0367 
     41 CB         28.7209   30.9189    5.1336 C.3       6 UNK        -0.1929 
     42 C          29.3379   28.5238    5.6698 C.2       6 UNK         0.5070 
     43 O          29.2702   28.6679    6.8898 O.2       6 UNK        -0.5237 
     44 N          30.1325   27.6265    5.0692 N.am      7 UNK        -0.4739 
     45 CA         31.0646   26.6596    5.6693 C.3       7 UNK         0.0276 
     46 CB         30.3945   25.7978    6.7598 C.3       7 UNK        -0.1927 
     47 C          32.3909   27.2638    6.1671 C.2       7 UNK         0.5013 
     48 O          33.3321   26.5078    6.4107 O.2       7 UNK        -0.5193 
     49 N          32.4642   28.5921    6.2835 N.am      8 UNK        -0.4253 
     50 CA         33.6505   29.3653    6.6264 C.3       8 UNK         0.0242 
     51 CB         33.8685   29.3608    8.1503 C.3       8 UNK        -0.2000 
     52 C          33.4439   30.7896    6.1045 C.2       8 UNK         0.4948 
     53 O          32.2968   31.2367    6.0076 O.2       8 UNK        -0.5275 
     54 N          34.5527   31.4758    5.7947 N.am      9 UNK        -0.4246 
     55 CA         34.6535   32.8380    5.2511 C.3       9 UNK         0.0261 
     56 CB         34.1139   33.8908    6.2420 C.3       9 UNK        -0.1959 
     57 C          34.0234   32.9800    3.8545 C.2       9 UNK         0.5033 
     58 O          34.7516   33.1410    2.8734 O.2       9 UNK        -0.5390 
     59 N          32.6911   32.8836    3.7780 N.am      10 UNK        -0.4215 
     60 CA         31.9181   32.8590    2.5381 C.3       10 UNK         0.0240 
     61 CB         30.5157   33.4404    2.7884 C.3       10 UNK        -0.1982 
     62 C          31.8925   31.4284    1.9759 C.2       10 UNK         0.4970 
     63 O          30.8675   30.7473    2.0434 O.2       10 UNK        -0.4916 
     64 N          33.0516   31.0091    1.4631 N.am      11 UNK        -0.4279 
     65 CA         33.3011   29.7313    0.7815 C.3       11 UNK         0.1003 
     66 C          33.2306   29.8469   -0.7713 C.2       11 UNK         0.5709 
     67 N          32.8566   30.9862   -1.3431 N.am      11 UNK        -0.7358 
     68 O          33.5188   28.8836   -1.4768 O.2       11 UNK        -0.4999 
     69 C69        34.6535   29.1313    1.2542 C.3       12 UNK        -0.0954 
     70 S70        34.5438   28.4318    2.9365 S.3       12 UNK        -0.2268 
     71 C71        34.9536   26.6790    2.6367 C.3       12 UNK         0.0203 
     72 H72        24.1117   26.3578    2.1758 H         1 UNK         0.0888 
     73 H73        23.4475   25.8981    3.7483 H         1 UNK         0.0888 
     74 H74        24.9537   26.8082    3.6635 H         1 UNK         0.0888 
     75 H75        26.9116   25.7066    3.0734 H         1 UNK         0.3017 
     76 H76        26.9707   22.8194    3.5418 H         1 UNK         0.0873 
     77 H77        28.7043   24.2916    4.5202 H         1 UNK         0.0745 
     78 H78        29.2541   24.7540    2.9383 H         1 UNK         0.0745 
     79 H79        32.2310   22.3416    3.9262 H         1 UNK         0.0705 
     80 H80        31.5008   23.6522    4.8119 H         1 UNK         0.0705 
     81 H81        33.6391   24.8160    4.1170 H         1 UNK         0.1334 
     82 H82        33.5536   26.7078    0.2664 H         1 UNK         0.1417 
     83 H83        30.6710   23.7113    1.2228 H         1 UNK         0.1562 
     84 H84        30.5910   24.7110   -0.9043 H         1 UNK         0.0748 
     85 H85        32.0443   25.4592   -1.5234 H         1 UNK         0.0748 
     86 H86        30.4719   27.2184    1.6523 H         1 UNK         0.0940 
     87 H87        29.1938   26.1697    1.0718 H         1 UNK         0.0940 
     88 H88        29.1405   29.2303    0.8235 H         1 UNK         0.0703 
     89 H89        27.0327   27.1707    0.3398 H         1 UNK         0.3081 
     90 H90        24.8197   28.3450   -0.4881 H         1 UNK         0.0719 
     91 H91        24.8088   30.5103   -1.6949 H         1 UNK         0.0809 
     92 H92        25.7759   29.8251   -2.9938 H         1 UNK         0.0809 
     93 H93        24.1350   29.2446   -2.7051 H         1 UNK         0.0809 
     94 H94        25.9807   27.3595   -2.9683 H         1 UNK         0.2990 
     95 H95        25.5107   24.7277   -3.0599 H         1 UNK         0.0690 
     96 H96        27.9413   24.3557   -3.7104 H         1 UNK         0.0788 
     97 H97        28.4324   25.4746   -2.4423 H         1 UNK         0.0788 
     98 H98        27.4831   26.0432   -3.8102 H         1 UNK         0.0788 
     99 H99        27.3758   23.7121   -0.9528 H         1 UNK         0.2993 
    100 H100       25.1729   21.1049   -0.0169 H         1 UNK         0.0949 
    101 H101       26.9198   20.3167   -1.5945 H         1 UNK         0.0767 
    102 H102       28.1132   21.3658   -0.8472 H         1 UNK         0.0767 
    103 H103       27.4043   20.0403    0.0709 H         1 UNK         0.0767 
    104 H104       25.6404   22.2018    1.8285 H         1 UNK         0.3013 
    105 H105       29.4724   29.8926    2.9127 H         1 UNK         0.3121 
    106 H106       27.4509   29.2067    4.9454 H         1 UNK         0.0774 
    107 H107       28.4134   31.1137    6.1618 H         1 UNK         0.0815 
    108 H108       29.7726   31.1930    5.0549 H         1 UNK         0.0815 
    109 H109       28.1417   31.5843    4.4936 H         1 UNK         0.0815 
    110 H110       30.1211   27.6327    4.0602 H         1 UNK         0.2987 
    111 H111       31.3308   25.9958    4.8499 H         1 UNK         0.0949 
    112 H112       31.0286   24.9520    7.0279 H         1 UNK         0.0806 
    113 H113       29.4387   25.3959    6.4272 H         1 UNK         0.0806 
    114 H114       30.2178   26.3647    7.6741 H         1 UNK         0.0806 
    115 H115       31.6512   29.1550    6.0651 H         1 UNK         0.3010 
    116 H116       34.5171   28.9274    6.1259 H         1 UNK         0.0829 
    117 H117       33.0111   29.7802    8.6786 H         1 UNK         0.0813 
    118 H118       34.0314   28.3507    8.5264 H         1 UNK         0.0813 
    119 H119       34.7432   29.9521    8.4238 H         1 UNK         0.0813 
    120 H120       35.4382   30.9988    5.8981 H         1 UNK         0.3038 
    121 H121       35.7207   33.0313    5.1295 H         1 UNK         0.0769 
    122 H122       34.2388   34.8985    5.8437 H         1 UNK         0.0811 
    123 H123       34.6514   33.8498    7.1893 H         1 UNK         0.0811 
    124 H124       33.0536   33.7581    6.4578 H         1 UNK         0.0811 
    125 H125       32.2124   32.5905    4.6261 H         1 UNK         0.3204 
    126 H126       32.4024   33.4971    1.7955 H         1 UNK         0.0748 
    127 H127       29.9060   33.3937    1.8850 H         1 UNK         0.0771 
    128 H128       29.9833   32.9036    3.5695 H         1 UNK         0.0771 
    129 H129       30.5726   34.4873    3.0868 H         1 UNK         0.0771 
    130 H130       33.8419   31.6404    1.5132 H         1 UNK         0.2980 
    131 H131       32.5085   29.0281    1.0445 H         1 UNK         0.0545 
    132 H132       32.6091   31.7865   -0.7852 H         1 UNK         0.3459 
    133 H133       32.8154   31.0389   -2.3486 H         1 UNK         0.3459 
    134 H134       35.0144   28.3595    0.5745 H         1 UNK         0.0616 
    135 H135       35.4314   29.8966    1.2513 H         1 UNK         0.0616 
    136 H136       35.3921   26.2793    3.5525 H         1 UNK         0.0634 
    137 H137       35.7306   26.5951    1.8759 H         1 UNK         0.0634 
@<TRIPOS>BOND
     1    1    2 1    
     2    1   72 1    
     3    1   73 1    
     4    1   74 1    
     5    2    3 2    
     6    2    4 am   BACKBONE|DICT|INTERRES
     7    4    5 1    
     8    4   75 1    
     9    5    6 1    
    10    5   35 1    
    11    5   76 1    
    12    6    7 1    
    13    6   77 1    
    14    6   78 1    
    15    7    8 1    
    16    8    9 1    
    17    8   79 1    
    18    8   80 1    
    19    9   10 ar   
    20    9   14 ar   
    21   10   11 ar   
    22   10   81 1    
    23   11   12 ar   
    24   11   71 1    
    25   12   13 ar   
    26   12   82 1    
    27   13   14 ar   
    28   13   15 1    
    29   14   83 1    
    30   15   16 1    
    31   15   84 1    
    32   15   85 1    
    33   16   17 1    
    34   17   18 1    
    35   17   86 1    
    36   17   87 1    
    37   18   19 1    
    38   18   37 1    
    39   18   88 1    
    40   19   20 am   BACKBONE|DICT|INTERRES
    41   19   89 1    
    42   20   21 2    
    43   20   22 1    
    44   22   23 1    
    45   22   24 1    
    46   22   90 1    
    47   23   91 1    
    48   23   92 1    
    49   23   93 1    
    50   24   25 am   BACKBONE|DICT|INTERRES
    51   24   94 1    
    52   25   26 2    
    53   25   27 1    
    54   27   28 1    
    55   27   29 1    
    56   27   95 1    
    57   28   96 1    
    58   28   97 1    
    59   28   98 1    
    60   29   30 am   BACKBONE|DICT|INTERRES
    61   29   99 1    
    62   30   31 2    
    63   30   32 1    
    64   32   33 1    
    65   32   34 1    
    66   32  100 1    
    67   33  101 1    
    68   33  102 1    
    69   33  103 1    
    70   34   35 am   BACKBONE|DICT|INTERRES
    71   34  104 1    
    72   35   36 2    
    73   37   38 2    
    74   37   39 am   BACKBONE|DICT|INTERRES
    75   39   40 1    
    76   39  105 1    
    77   40   41 1    
    78   40   42 1    
    79   40  106 1    
    80   41  107 1    
    81   41  108 1    
    82   41  109 1    
    83   42   43 2    
    84   42   44 am   BACKBONE|DICT|INTERRES
    85   44   45 1    
    86   44  110 1    
    87   45   46 1    
    88   45   47 1    
    89   45  111 1    
    90   46  112 1    
    91   46  113 1    
    92   46  114 1    
    93   47   48 2    
    94   47   49 am   BACKBONE|DICT|INTERRES
    95   49   50 1    
    96   49  115 1    
    97   50   51 1    
    98   50   52 1    
    99   50  116 1    
   100   51  117 1    
   101   51  118 1    
   102   51  119 1    
   103   52   53 2    
   104   52   54 am   BACKBONE|DICT|INTERRES
   105   54   55 1    
   106   54  120 1    
   107   55   56 1    
   108   55   57 1    
   109   55  121 1    
   110   56  122 1    
   111   56  123 1    
   112   56  124 1    
   113   57   58 2    
   114   57   59 am   BACKBONE|DICT|INTERRES
   115   59   60 1    
   116   59  125 1    
   117   60   61 1    
   118   60   62 1    
   119   60  126 1    
   120   61  127 1    
   121   61  128 1    
   122   61  129 1    
   123   62   63 2    
   124   62   64 am   BACKBONE|DICT|INTERRES
   125   64   65 1    
   126   64  130 1    
   127   65   66 1    
   128   65   69 1    
   129   65  131 1    
   130   66   67 am   BACKBONE|DICT|INTERRES
   131   66   68 2    
   132   67  132 1    
   133   67  133 1    
   134   69   70 1    
   135   69  134 1    
   136   69  135 1    
   137   70   71 1    
   138   71  136 1    
   139   71  137 1    
@<TRIPOS>SUBSTRUCTURE
     1 UNK         1 GROUP             0       ****    0 ROOT    
