@<TRIPOS>MOLECULE
3R136
137   139    1
SMALL
USER_CHARGES


@<TRIPOS>ATOM
      1 CA         29.1406   20.0484    2.2384 C.3       0 UNK        -0.1979 
      2 C          29.3544   20.5789    0.8284 C.2       0 UNK         0.4864 
      3 O          29.7298   19.8133   -0.0602 O.2       0 UNK        -0.5359 
      4 N          29.1056   21.8784    0.6228 N.am      1 UNK        -0.4318 
      5 CA         29.2522   22.5840   -0.6581 C.3       1 UNK         0.0824 
      6 C6         30.3262   23.7081   -0.6072 C.3       12 UNK        -0.0944 
      7 S7         31.9848   23.1166   -0.1144 S.3       12 UNK        -0.2672 
      8 C8         32.6554   24.5513    0.8106 C.3       12 UNK         0.0333 
      9 C9         31.9660   24.8928    2.1360 C.ar      12 UNK        -0.0807 
     10 C10        32.3345   26.0635    2.8062 C.ar      12 UNK        -0.0894 
     11 C11        31.7176   26.4299    4.0085 C.ar      12 UNK        -0.0804 
     12 C12        30.6934   25.6309    4.5279 C.ar      12 UNK        -0.0824 
     13 C13        30.2884   24.4785    3.8492 C.ar      12 UNK        -0.0762 
     14 C14        30.9656   24.0912    2.6930 C.ar      12 UNK        -0.0782 
     15 C15        29.0822   23.6717    4.3053 C.3       12 UNK         0.0230 
     16 S16        27.7347   23.7735    3.0708 S.3       12 UNK        -0.2608 
     17 C17        26.9371   25.3583    3.4967 C.3       12 UNK        -0.0989 
     18 CA         27.6228   26.5956    2.8652 C.3       5 UNK         0.0716 
     19 N          27.5100   26.6682    1.4025 N.am      5 UNK        -0.4135 
     20 C          28.1716   27.5796    0.6652 C.2       4 UNK         0.5031 
     21 O          28.9921   28.3628    1.1468 O.2       4 UNK        -0.5229 
     22 CA         27.8844   27.6803   -0.8444 C.3       4 UNK         0.0329 
     23 CB         29.0962   27.2268   -1.6707 C.3       4 UNK        -0.2001 
     24 N          26.6896   26.9483   -1.2650 N.am      4 UNK        -0.4303 
     25 C          25.4398   27.4089   -1.1007 C.2       3 UNK         0.5044 
     26 O          25.1813   28.5235   -0.6459 O.2       3 UNK        -0.5152 
     27 CA         24.2711   26.4865   -1.5005 C.3       3 UNK         0.0319 
     28 CB         23.6601   26.9429   -2.8356 C.3       3 UNK        -0.2001 
     29 N          24.6122   25.0641   -1.5962 N.am      3 UNK        -0.4354 
     30 C          25.0678   24.3007   -0.5939 C.2       2 UNK         0.4964 
     31 O          25.2753   24.7238    0.5442 O.2       2 UNK        -0.5047 
     32 CA         25.3831   22.8271   -0.9158 C.3       2 UNK         0.0288 
     33 CB         25.0077   22.3916   -2.3519 C.3       2 UNK        -0.2113 
     34 N          26.7866   22.5033   -0.6383 N.am      2 UNK        -0.4145 
     35 C          27.8787   23.1127   -1.1321 C.2       1 UNK         0.5006 
     36 O          27.8264   24.0567   -1.9240 O.2       1 UNK        -0.5103 
     37 C          27.1020   27.8938    3.5123 C.2       5 UNK         0.5055 
     38 O          26.0665   28.4152    3.0926 O.2       5 UNK        -0.5220 
     39 N          27.8637   28.4098    4.4873 N.am      6 UNK        -0.4450 
     40 CA         27.7318   29.7084    5.1660 C.3       6 UNK         0.0367 
     41 CB         26.3640   29.8724    5.8569 C.3       6 UNK        -0.1929 
     42 C          28.0561   30.9155    4.2652 C.2       6 UNK         0.5070 
     43 O          28.7485   31.8261    4.7181 O.2       6 UNK        -0.5237 
     44 N          27.6038   30.8955    3.0040 N.am      7 UNK        -0.4739 
     45 CA         27.8743   31.9139    1.9824 C.3       7 UNK         0.0276 
     46 CB         27.0672   31.5925    0.7156 C.3       7 UNK        -0.1927 
     47 C          29.3703   32.0728    1.6528 C.2       7 UNK         0.5013 
     48 O          29.8152   33.1918    1.3967 O.2       7 UNK        -0.5193 
     49 N          30.1260   30.9669    1.7154 N.am      8 UNK        -0.4253 
     50 CA         31.5868   30.9295    1.5962 C.3       8 UNK         0.0242 
     51 CB         32.0223   29.5057    1.2085 C.3       8 UNK        -0.2000 
     52 C          32.3461   31.4466    2.8394 C.2       8 UNK         0.4948 
     53 O          33.5783   31.4502    2.8135 O.2       8 UNK        -0.5275 
     54 N          31.6280   31.8844    3.8879 N.am      9 UNK        -0.4246 
     55 CA         32.1099   32.5881    5.0827 C.3       9 UNK         0.0261 
     56 CB         32.5246   34.0315    4.7182 C.3       9 UNK        -0.1959 
     57 C          33.1958   31.8151    5.8522 C.2       9 UNK         0.5033 
     58 O          32.8593   30.9417    6.6514 O.2       9 UNK        -0.5390 
     59 N          34.4687   32.1505    5.5992 N.am      10 UNK        -0.4215 
     60 CA         35.6536   31.5058    6.1723 C.3       10 UNK         0.0240 
     61 CB         36.8740   32.4121    5.9364 C.3       10 UNK        -0.1982 
     62 C          35.9197   30.0872    5.6305 C.2       10 UNK         0.4970 
     63 O          36.7412   29.3784    6.2134 O.2       10 UNK        -0.4916 
     64 N          35.2397   29.7047    4.5403 N.am      11 UNK        -0.4279 
     65 CA         35.2957   28.3847    3.8892 C.3       11 UNK         0.1003 
     66 C          36.5925   28.1226    3.0664 C.2       11 UNK         0.5709 
     67 N          37.4244   29.1233    2.8021 N.am      11 UNK        -0.7358 
     68 O          36.8351   27.0006    2.6282 O.2       11 UNK        -0.4999 
     69 C69        34.9384   27.1887    4.8297 C.3       12 UNK        -0.0954 
     70 S70        33.4797   27.4232    5.9090 S.3       12 UNK        -0.2268 
     71 C71        32.1272   27.7068    4.7287 C.3       12 UNK         0.0203 
     72 H72        28.5591   19.1272    2.2102 H         1 UNK         0.0888 
     73 H73        30.1006   19.8315    2.7060 H         1 UNK         0.0888 
     74 H74        28.6075   20.7611    2.8667 H         1 UNK         0.0888 
     75 H75        28.7613   22.4465    1.3878 H         1 UNK         0.3017 
     76 H76        29.5642   21.8800   -1.4321 H         1 UNK         0.0873 
     77 H77        30.4399   24.1638   -1.5921 H         1 UNK         0.0745 
     78 H78        30.0067   24.5049    0.0666 H         1 UNK         0.0745 
     79 H79        32.6219   25.4243    0.1568 H         1 UNK         0.0705 
     80 H80        33.7096   24.3585    1.0135 H         1 UNK         0.0705 
     81 H81        33.1074   26.6915    2.3871 H         1 UNK         0.1334 
     82 H82        30.1921   25.9229    5.4405 H         1 UNK         0.1417 
     83 H83        30.6681   23.1775    2.2085 H         1 UNK         0.1562 
     84 H84        28.7253   24.0041    5.2812 H         1 UNK         0.0748 
     85 H85        29.3775   22.6287    4.4264 H         1 UNK         0.0748 
     86 H86        26.9140   25.4377    4.5855 H         1 UNK         0.0940 
     87 H87        25.8923   25.3093    3.1837 H         1 UNK         0.0940 
     88 H88        28.6889   26.5388    3.0738 H         1 UNK         0.0703 
     89 H89        26.8131   26.0711    0.9717 H         1 UNK         0.3081 
     90 H90        27.7312   28.7382   -1.0647 H         1 UNK         0.0719 
     91 H91        29.9888   27.7927   -1.4001 H         1 UNK         0.0809 
     92 H92        28.9283   27.3760   -2.7373 H         1 UNK         0.0809 
     93 H93        29.3187   26.1757   -1.5114 H         1 UNK         0.0809 
     94 H94        26.8305   26.0149   -1.6353 H         1 UNK         0.2990 
     95 H95        23.5091   26.5859   -0.7247 H         1 UNK         0.0690 
     96 H96        22.7691   26.3659   -3.0839 H         1 UNK         0.0788 
     97 H97        24.3686   26.8412   -3.6587 H         1 UNK         0.0788 
     98 H98        23.3613   27.9914   -2.7909 H         1 UNK         0.0788 
     99 H99        24.5028   24.6343   -2.5035 H         1 UNK         0.2993 
    100 H100       24.7832   22.2356   -0.2222 H         1 UNK         0.0949 
    101 H101       23.9468   22.5500   -2.5512 H         1 UNK         0.0767 
    102 H102       25.5774   22.9296   -3.1108 H         1 UNK         0.0767 
    103 H103       25.1987   21.3280   -2.4963 H         1 UNK         0.0767 
    104 H104       26.9359   21.7561    0.0243 H         1 UNK         0.3013 
    105 H105       28.7020   27.9018    4.7299 H         1 UNK         0.3121 
    106 H106       28.4890   29.7008    5.9521 H         1 UNK         0.0774 
    107 H107       26.3448   30.7796    6.4621 H         1 UNK         0.0815 
    108 H108       25.5461   29.9492    5.1403 H         1 UNK         0.0815 
    109 H109       26.1517   29.0350    6.5214 H         1 UNK         0.0815 
    110 H110       27.0284   30.1043    2.7306 H         1 UNK         0.2987 
    111 H111       27.5267   32.8716    2.3757 H         1 UNK         0.0949 
    112 H112       25.9968   31.5700    0.9207 H         1 UNK         0.0806 
    113 H113       27.2338   32.3446   -0.0568 H         1 UNK         0.0806 
    114 H114       27.3456   30.6261    0.2967 H         1 UNK         0.0806 
    115 H115       29.6591   30.0706    1.8303 H         1 UNK         0.3010 
    116 H116       31.8731   31.5922    0.7769 H         1 UNK         0.0829 
    117 H117       31.6493   29.2417    0.2188 H         1 UNK         0.0813 
    118 H118       33.1081   29.4079    1.1780 H         1 UNK         0.0813 
    119 H119       31.6374   28.7635    1.9055 H         1 UNK         0.0813 
    120 H120       30.6186   31.7942    3.8430 H         1 UNK         0.3038 
    121 H121       31.2554   32.6593    5.7576 H         1 UNK         0.0769 
    122 H122       33.3023   34.0635    3.9545 H         1 UNK         0.0811 
    123 H123       32.8933   34.5695    5.5928 H         1 UNK         0.0811 
    124 H124       31.6719   34.5928    4.3354 H         1 UNK         0.0811 
    125 H125       34.6338   32.8537    4.8931 H         1 UNK         0.3204 
    126 H126       35.4987   31.4129    7.2493 H         1 UNK         0.0748 
    127 H127       37.7726   31.9834    6.3826 H         1 UNK         0.0771 
    128 H128       37.0735   32.5531    4.8734 H         1 UNK         0.0771 
    129 H129       36.7310   33.3952    6.3854 H         1 UNK         0.0771 
    130 H130       34.6308   30.3814    4.0898 H         1 UNK         0.2980 
    131 H131       34.5211   28.4335    3.1259 H         1 UNK         0.0545 
    132 H132       37.2296   30.0516    3.1404 H         1 UNK         0.3459 
    133 H133       38.2542   28.9453    2.2588 H         1 UNK         0.3459 
    134 H134       35.7832   26.9671    5.4834 H         1 UNK         0.0616 
    135 H135       34.7797   26.2814    4.2454 H         1 UNK         0.0616 
    136 H136       31.2757   28.1106    5.2781 H         1 UNK         0.0634 
    137 H137       32.4131   28.4844    4.0232 H         1 UNK         0.0634 
@<TRIPOS>BOND
     1    1    2 1    
     2    1   72 1    
     3    1   73 1    
     4    1   74 1    
     5    2    3 2    
     6    2    4 am   BACKBONE|DICT|INTERRES
     7    4    5 1    
     8    4   75 1    
     9    5    6 1    
    10    5   35 1    
    11    5   76 1    
    12    6    7 1    
    13    6   77 1    
    14    6   78 1    
    15    7    8 1    
    16    8    9 1    
    17    8   79 1    
    18    8   80 1    
    19    9   10 ar   
    20    9   14 ar   
    21   10   11 ar   
    22   10   81 1    
    23   11   12 ar   
    24   11   71 1    
    25   12   13 ar   
    26   12   82 1    
    27   13   14 ar   
    28   13   15 1    
    29   14   83 1    
    30   15   16 1    
    31   15   84 1    
    32   15   85 1    
    33   16   17 1    
    34   17   18 1    
    35   17   86 1    
    36   17   87 1    
    37   18   19 1    
    38   18   37 1    
    39   18   88 1    
    40   19   20 am   BACKBONE|DICT|INTERRES
    41   19   89 1    
    42   20   21 2    
    43   20   22 1    
    44   22   23 1    
    45   22   24 1    
    46   22   90 1    
    47   23   91 1    
    48   23   92 1    
    49   23   93 1    
    50   24   25 am   BACKBONE|DICT|INTERRES
    51   24   94 1    
    52   25   26 2    
    53   25   27 1    
    54   27   28 1    
    55   27   29 1    
    56   27   95 1    
    57   28   96 1    
    58   28   97 1    
    59   28   98 1    
    60   29   30 am   BACKBONE|DICT|INTERRES
    61   29   99 1    
    62   30   31 2    
    63   30   32 1    
    64   32   33 1    
    65   32   34 1    
    66   32  100 1    
    67   33  101 1    
    68   33  102 1    
    69   33  103 1    
    70   34   35 am   BACKBONE|DICT|INTERRES
    71   34  104 1    
    72   35   36 2    
    73   37   38 2    
    74   37   39 am   BACKBONE|DICT|INTERRES
    75   39   40 1    
    76   39  105 1    
    77   40   41 1    
    78   40   42 1    
    79   40  106 1    
    80   41  107 1    
    81   41  108 1    
    82   41  109 1    
    83   42   43 2    
    84   42   44 am   BACKBONE|DICT|INTERRES
    85   44   45 1    
    86   44  110 1    
    87   45   46 1    
    88   45   47 1    
    89   45  111 1    
    90   46  112 1    
    91   46  113 1    
    92   46  114 1    
    93   47   48 2    
    94   47   49 am   BACKBONE|DICT|INTERRES
    95   49   50 1    
    96   49  115 1    
    97   50   51 1    
    98   50   52 1    
    99   50  116 1    
   100   51  117 1    
   101   51  118 1    
   102   51  119 1    
   103   52   53 2    
   104   52   54 am   BACKBONE|DICT|INTERRES
   105   54   55 1    
   106   54  120 1    
   107   55   56 1    
   108   55   57 1    
   109   55  121 1    
   110   56  122 1    
   111   56  123 1    
   112   56  124 1    
   113   57   58 2    
   114   57   59 am   BACKBONE|DICT|INTERRES
   115   59   60 1    
   116   59  125 1    
   117   60   61 1    
   118   60   62 1    
   119   60  126 1    
   120   61  127 1    
   121   61  128 1    
   122   61  129 1    
   123   62   63 2    
   124   62   64 am   BACKBONE|DICT|INTERRES
   125   64   65 1    
   126   64  130 1    
   127   65   66 1    
   128   65   69 1    
   129   65  131 1    
   130   66   67 am   BACKBONE|DICT|INTERRES
   131   66   68 2    
   132   67  132 1    
   133   67  133 1    
   134   69   70 1    
   135   69  134 1    
   136   69  135 1    
   137   70   71 1    
   138   71  136 1    
   139   71  137 1    
@<TRIPOS>SUBSTRUCTURE
     1 UNK         1 GROUP             0       ****    0 ROOT    
