@<TRIPOS>MOLECULE
3R136
137   139    1
SMALL
USER_CHARGES


@<TRIPOS>ATOM
      1 CA         28.7156   19.2416   -0.5541 C.3       0 UNK        -0.1979 
      2 C          28.8037   20.5601   -1.3084 C.2       0 UNK         0.4864 
      3 O          28.7148   20.5701   -2.5372 O.2       0 UNK        -0.5359 
      4 N          28.9824   21.6710   -0.5827 N.am      1 UNK        -0.4318 
      5 CA         29.0300   23.0271   -1.1319 C.3       1 UNK         0.0824 
      6 C6         29.7086   24.0191   -0.1524 C.3       12 UNK        -0.0944 
      7 S7         31.5260   23.8836   -0.1974 S.3       12 UNK        -0.2672 
      8 C8         31.8853   22.6663    1.1099 C.3       12 UNK         0.0333 
      9 C9         31.5669   23.1844    2.5055 C.ar      12 UNK        -0.0807 
     10 C10        32.2913   24.2548    3.0397 C.ar      12 UNK        -0.0894 
     11 C11        32.0299   24.7115    4.3344 C.ar      12 UNK        -0.0804 
     12 C12        31.0396   24.0895    5.0985 C.ar      12 UNK        -0.0824 
     13 C13        30.3022   23.0247    4.5723 C.ar      12 UNK        -0.0762 
     14 C14        30.5728   22.5731    3.2770 C.ar      12 UNK        -0.0782 
     15 C15        29.2088   22.3665    5.4015 C.3       12 UNK         0.0230 
     16 S16        27.5495   22.9208    4.8940 S.3       12 UNK        -0.2608 
     17 C17        27.6158   24.7042    5.2848 C.3       12 UNK        -0.0989 
     18 CA         27.9013   25.5695    4.0247 C.3       5 UNK         0.0716 
     19 N          26.9087   25.3899    2.9561 N.am      5 UNK        -0.4135 
     20 C          25.6080   25.7104    3.0115 C.2       4 UNK         0.5031 
     21 O          25.0635   26.2533    3.9748 O.2       4 UNK        -0.5229 
     22 CA         24.7928   25.3497    1.7577 C.3       4 UNK         0.0329 
     23 CB         23.2931   25.6991    1.8765 C.3       4 UNK        -0.2001 
     24 N          25.3811   25.9178    0.5392 N.am      4 UNK        -0.4303 
     25 C          25.4981   27.2170    0.2141 C.2       3 UNK         0.5044 
     26 O          25.1173   28.1392    0.9347 O.2       3 UNK        -0.5152 
     27 CA         26.1641   27.5681   -1.1351 C.3       3 UNK         0.0319 
     28 CB         27.4618   28.3605   -0.9079 C.3       3 UNK        -0.2001 
     29 N          26.4719   26.4080   -1.9736 N.am      3 UNK        -0.4354 
     30 C          25.5761   25.6459   -2.6166 C.2       2 UNK         0.4964 
     31 O          24.3724   25.8984   -2.6665 O.2       2 UNK        -0.5047 
     32 CA         26.1076   24.3623   -3.2834 C.3       2 UNK         0.0288 
     33 CB         26.2455   24.5635   -4.8015 C.3       2 UNK        -0.2113 
     34 N          27.3880   23.8810   -2.7437 N.am      2 UNK        -0.4145 
     35 C          27.6026   23.4861   -1.4792 C.2       1 UNK         0.5006 
     36 O          26.7441   23.5182   -0.5931 O.2       1 UNK        -0.5103 
     37 C          28.1416   27.0602    4.3518 C.2       5 UNK         0.5055 
     38 O          28.2269   27.4388    5.5218 O.2       5 UNK        -0.5220 
     39 N          28.2535   27.8767    3.2978 N.am      6 UNK        -0.4450 
     40 CA         28.5380   29.3086    3.3537 C.3       6 UNK         0.0367 
     41 CB         27.2303   30.0995    3.5550 C.3       6 UNK        -0.1929 
     42 C          29.2956   29.7020    2.0783 C.2       6 UNK         0.5070 
     43 O          28.8731   30.6043    1.3560 O.2       6 UNK        -0.5237 
     44 N          30.3861   28.9736    1.7975 N.am      7 UNK        -0.4739 
     45 CA         31.1965   29.0833    0.5762 C.3       7 UNK         0.0276 
     46 CB         32.2036   27.9212    0.5536 C.3       7 UNK        -0.1927 
     47 C          31.9234   30.4318    0.3958 C.2       7 UNK         0.5013 
     48 O          32.3164   30.7618   -0.7237 O.2       7 UNK        -0.5193 
     49 N          32.0841   31.1778    1.4910 N.am      8 UNK        -0.4253 
     50 CA         32.6708   32.5089    1.5940 C.3       8 UNK         0.0242 
     51 CB         34.2028   32.4347    1.4353 C.3       8 UNK        -0.2000 
     52 C          32.2754   33.0628    2.9693 C.2       8 UNK         0.4948 
     53 O          31.7116   32.3198    3.7789 O.2       8 UNK        -0.5275 
     54 N          32.6234   34.3275    3.2450 N.am      9 UNK        -0.4246 
     55 CA         32.3552   35.0147    4.5187 C.3       9 UNK         0.0261 
     56 CB         32.8553   36.4660    4.4315 C.3       9 UNK        -0.1959 
     57 C          32.9445   34.3162    5.7621 C.2       9 UNK         0.5033 
     58 O          32.3391   34.3821    6.8327 O.2       9 UNK        -0.5390 
     59 N          34.0886   33.6418    5.5865 N.am      10 UNK        -0.4215 
     60 CA         34.7326   32.7805    6.5846 C.3       10 UNK         0.0240 
     61 CB         36.1788   33.2675    6.7944 C.3       10 UNK        -0.1982 
     62 C          34.6959   31.2930    6.1741 C.2       10 UNK         0.4970 
     63 O          35.3995   30.4870    6.7834 O.2       10 UNK        -0.4916 
     64 N          33.9093   30.9539    5.1416 N.am      11 UNK        -0.4279 
     65 CA         33.7809   29.6222    4.5236 C.3       11 UNK         0.1003 
     66 C          35.0594   29.0805    3.8074 C.2       11 UNK         0.5709 
     67 N          36.1200   29.8636    3.6503 N.am      11 UNK        -0.7358 
     68 O          35.0823   27.9448    3.3429 O.2       11 UNK        -0.4999 
     69 C69        33.1145   28.5947    5.4831 C.3       12 UNK        -0.0954 
     70 S70        31.9820   27.4523    4.6220 S.3       12 UNK        -0.2268 
     71 C71        32.8233   25.8688    4.9150 C.3       12 UNK         0.0203 
     72 H72        27.7539   18.7652   -0.7430 H         1 UNK         0.0888 
     73 H73        29.5025   18.5656   -0.8876 H         1 UNK         0.0888 
     74 H74        28.8205   19.3787    0.5221 H         1 UNK         0.0888 
     75 H75        28.9960   21.6068    0.4237 H         1 UNK         0.3017 
     76 H76        29.6131   23.0035   -2.0558 H         1 UNK         0.0873 
     77 H77        29.3410   23.8916    0.8671 H         1 UNK         0.0745 
     78 H78        29.4780   25.0514   -0.4240 H         1 UNK         0.0745 
     79 H79        31.3506   21.7393    0.9012 H         1 UNK         0.0705 
     80 H80        32.9461   22.4161    1.0650 H         1 UNK         0.0705 
     81 H81        33.0601   24.7315    2.4463 H         1 UNK         0.1334 
     82 H82        30.8371   24.4444    6.0999 H         1 UNK         0.1417 
     83 H83        30.0071   21.7438    2.8754 H         1 UNK         0.1562 
     84 H84        29.3505   22.5701    6.4642 H         1 UNK         0.0748 
     85 H85        29.2691   21.2829    5.2896 H         1 UNK         0.0748 
     86 H86        28.3738   24.8701    6.0518 H         1 UNK         0.0940 
     87 H87        26.6683   24.9932    5.7423 H         1 UNK         0.0940 
     88 H88        28.8455   25.2261    3.6008 H         1 UNK         0.0703 
     89 H89        27.2412   24.9280    2.1225 H         1 UNK         0.3081 
     90 H90        24.8627   24.2659    1.6503 H         1 UNK         0.0719 
     91 H91        23.1320   26.7654    2.0371 H         1 UNK         0.0809 
     92 H92        22.7465   25.4085    0.9794 H         1 UNK         0.0809 
     93 H93        22.8386   25.1746    2.7178 H         1 UNK         0.0809 
     94 H94        25.7581   25.2310   -0.1061 H         1 UNK         0.2990 
     95 H95        25.4654   28.2053   -1.6811 H         1 UNK         0.0690 
     96 H96        27.9171   28.6605   -1.8519 H         1 UNK         0.0788 
     97 H97        28.1973   27.7831   -0.3470 H         1 UNK         0.0788 
     98 H98        27.2637   29.2742   -0.3463 H         1 UNK         0.0788 
     99 H99        27.4411   26.1319   -2.0191 H         1 UNK         0.2993 
    100 H100       25.3643   23.5818   -3.1063 H         1 UNK         0.0949 
    101 H101       26.5252   23.6359   -5.3016 H         1 UNK         0.0767 
    102 H102       25.3019   24.8925   -5.2398 H         1 UNK         0.0767 
    103 H103       26.9968   25.3167   -5.0427 H         1 UNK         0.0767 
    104 H104       28.1502   23.8152   -3.4038 H         1 UNK         0.3013 
    105 H105       28.1654   27.4862    2.3706 H         1 UNK         0.3121 
    106 H106       29.2046   29.5159    4.1941 H         1 UNK         0.0774 
    107 H107       27.4243   31.1718    3.5997 H         1 UNK         0.0815 
    108 H108       26.5275   29.9250    2.7391 H         1 UNK         0.0815 
    109 H109       26.7368   29.8202    4.4859 H         1 UNK         0.0815 
    110 H110       30.6712   28.2662    2.4621 H         1 UNK         0.2987 
    111 H111       30.5247   28.9719   -0.2774 H         1 UNK         0.0949 
    112 H112       32.8907   27.9653    1.3998 H         1 UNK         0.0806 
    113 H113       31.6986   26.9554    0.5831 H         1 UNK         0.0806 
    114 H114       32.8055   27.9412   -0.3560 H         1 UNK         0.0806 
    115 H115       31.6596   30.8655    2.3565 H         1 UNK         0.3010 
    116 H116       32.2408   33.1493    0.8214 H         1 UNK         0.0829 
    117 H117       34.4843   32.0156    0.4693 H         1 UNK         0.0813 
    118 H118       34.6588   33.4233    1.4944 H         1 UNK         0.0813 
    119 H119       34.6585   31.8164    2.2078 H         1 UNK         0.0813 
    120 H120       33.0858   34.8709    2.5293 H         1 UNK         0.3038 
    121 H121       31.2711   35.0368    4.6495 H         1 UNK         0.0769 
    122 H122       32.6474   37.0066    5.3561 H         1 UNK         0.0811 
    123 H123       32.3621   37.0091    3.6250 H         1 UNK         0.0811 
    124 H124       33.9316   36.5141    4.2616 H         1 UNK         0.0811 
    125 H125       34.5211   33.6768    4.6743 H         1 UNK         0.3204 
    126 H126       34.2101   32.8504    7.5407 H         1 UNK         0.0748 
    127 H127       36.6799   32.6934    7.5751 H         1 UNK         0.0771 
    128 H128       36.7741   33.1729    5.8854 H         1 UNK         0.0771 
    129 H129       36.2020   34.3131    7.1023 H         1 UNK         0.0771 
    130 H130       33.2906   31.6573    4.7535 H         1 UNK         0.2980 
    131 H131       33.0835   29.7977    3.7057 H         1 UNK         0.0545 
    132 H132       36.1385   30.7912    4.0383 H         1 UNK         0.3459 
    133 H133       36.9288   29.4991    3.1725 H         1 UNK         0.3459 
    134 H134       33.8654   28.0456    6.0539 H         1 UNK         0.0616 
    135 H135       32.5059   29.1128    6.2259 H         1 UNK         0.0616 
    136 H136       32.9595   25.7244    5.9879 H         1 UNK         0.0634 
    137 H137       33.8218   25.8967    4.4773 H         1 UNK         0.0634 
@<TRIPOS>BOND
     1    1    2 1    
     2    1   72 1    
     3    1   73 1    
     4    1   74 1    
     5    2    3 2    
     6    2    4 am   BACKBONE|DICT|INTERRES
     7    4    5 1    
     8    4   75 1    
     9    5    6 1    
    10    5   35 1    
    11    5   76 1    
    12    6    7 1    
    13    6   77 1    
    14    6   78 1    
    15    7    8 1    
    16    8    9 1    
    17    8   79 1    
    18    8   80 1    
    19    9   10 ar   
    20    9   14 ar   
    21   10   11 ar   
    22   10   81 1    
    23   11   12 ar   
    24   11   71 1    
    25   12   13 ar   
    26   12   82 1    
    27   13   14 ar   
    28   13   15 1    
    29   14   83 1    
    30   15   16 1    
    31   15   84 1    
    32   15   85 1    
    33   16   17 1    
    34   17   18 1    
    35   17   86 1    
    36   17   87 1    
    37   18   19 1    
    38   18   37 1    
    39   18   88 1    
    40   19   20 am   BACKBONE|DICT|INTERRES
    41   19   89 1    
    42   20   21 2    
    43   20   22 1    
    44   22   23 1    
    45   22   24 1    
    46   22   90 1    
    47   23   91 1    
    48   23   92 1    
    49   23   93 1    
    50   24   25 am   BACKBONE|DICT|INTERRES
    51   24   94 1    
    52   25   26 2    
    53   25   27 1    
    54   27   28 1    
    55   27   29 1    
    56   27   95 1    
    57   28   96 1    
    58   28   97 1    
    59   28   98 1    
    60   29   30 am   BACKBONE|DICT|INTERRES
    61   29   99 1    
    62   30   31 2    
    63   30   32 1    
    64   32   33 1    
    65   32   34 1    
    66   32  100 1    
    67   33  101 1    
    68   33  102 1    
    69   33  103 1    
    70   34   35 am   BACKBONE|DICT|INTERRES
    71   34  104 1    
    72   35   36 2    
    73   37   38 2    
    74   37   39 am   BACKBONE|DICT|INTERRES
    75   39   40 1    
    76   39  105 1    
    77   40   41 1    
    78   40   42 1    
    79   40  106 1    
    80   41  107 1    
    81   41  108 1    
    82   41  109 1    
    83   42   43 2    
    84   42   44 am   BACKBONE|DICT|INTERRES
    85   44   45 1    
    86   44  110 1    
    87   45   46 1    
    88   45   47 1    
    89   45  111 1    
    90   46  112 1    
    91   46  113 1    
    92   46  114 1    
    93   47   48 2    
    94   47   49 am   BACKBONE|DICT|INTERRES
    95   49   50 1    
    96   49  115 1    
    97   50   51 1    
    98   50   52 1    
    99   50  116 1    
   100   51  117 1    
   101   51  118 1    
   102   51  119 1    
   103   52   53 2    
   104   52   54 am   BACKBONE|DICT|INTERRES
   105   54   55 1    
   106   54  120 1    
   107   55   56 1    
   108   55   57 1    
   109   55  121 1    
   110   56  122 1    
   111   56  123 1    
   112   56  124 1    
   113   57   58 2    
   114   57   59 am   BACKBONE|DICT|INTERRES
   115   59   60 1    
   116   59  125 1    
   117   60   61 1    
   118   60   62 1    
   119   60  126 1    
   120   61  127 1    
   121   61  128 1    
   122   61  129 1    
   123   62   63 2    
   124   62   64 am   BACKBONE|DICT|INTERRES
   125   64   65 1    
   126   64  130 1    
   127   65   66 1    
   128   65   69 1    
   129   65  131 1    
   130   66   67 am   BACKBONE|DICT|INTERRES
   131   66   68 2    
   132   67  132 1    
   133   67  133 1    
   134   69   70 1    
   135   69  134 1    
   136   69  135 1    
   137   70   71 1    
   138   71  136 1    
   139   71  137 1    
@<TRIPOS>SUBSTRUCTURE
     1 UNK         1 GROUP             0       ****    0 ROOT    
