@<TRIPOS>MOLECULE
3R136
137   139    1
SMALL
USER_CHARGES


@<TRIPOS>ATOM
      1 CA         26.1145   18.1745    3.8876 C.3       0 UNK        -0.1979 
      2 C          27.2146   19.1475    3.4894 C.2       0 UNK         0.4864 
      3 O          28.3958   18.8221    3.6180 O.2       0 UNK        -0.5359 
      4 N          26.8375   20.3353    3.0061 N.am      1 UNK        -0.4318 
      5 CA         27.7369   21.3897    2.5466 C.3       1 UNK         0.0824 
      6 C6         28.3028   22.2147    3.7348 C.3       12 UNK        -0.0944 
      7 S7         29.5505   23.4581    3.2622 S.3       12 UNK        -0.2672 
      8 C8         31.0254   22.4140    3.0618 C.3       12 UNK         0.0333 
      9 C9         32.2113   23.2276    2.5674 C.ar      12 UNK        -0.0807 
     10 C10        33.3339   23.4071    3.3810 C.ar      12 UNK        -0.0894 
     11 C11        34.4334   24.1390    2.9224 C.ar      12 UNK        -0.0804 
     12 C12        34.4021   24.6947    1.6396 C.ar      12 UNK        -0.0824 
     13 C13        33.2709   24.5519    0.8304 C.ar      12 UNK        -0.0762 
     14 C14        32.1873   23.7997    1.2913 C.ar      12 UNK        -0.0782 
     15 C15        33.2209   25.2209   -0.5351 C.3       12 UNK         0.0230 
     16 S16        32.6873   26.9583   -0.4084 S.3       12 UNK        -0.2608 
     17 C17        30.8762   26.7876   -0.2935 C.3       12 UNK        -0.0989 
     18 CA         30.1721   28.1536   -0.0742 C.3       5 UNK         0.0716 
     19 N          28.8378   28.1774   -0.6749 N.am      5 UNK        -0.4135 
     20 C          28.2377   29.2770   -1.1519 C.2       4 UNK         0.5031 
     21 O          28.7850   30.3768   -1.2337 O.2       4 UNK        -0.5229 
     22 CA         26.7789   29.1369   -1.6292 C.3       4 UNK         0.0329 
     23 CB         26.7299   28.9458   -3.1538 C.3       4 UNK        -0.2001 
     24 N          26.0443   28.0449   -0.9846 N.am      4 UNK        -0.4303 
     25 C          25.7230   28.0045    0.3162 C.2       3 UNK         0.5044 
     26 O          25.9934   28.8956    1.1179 O.2       3 UNK        -0.5152 
     27 CA         25.0407   26.7230    0.8217 C.3       3 UNK         0.0319 
     28 CB         23.5196   26.8068    0.6207 C.3       3 UNK        -0.2001 
     29 N          25.5525   25.4924    0.2075 N.am      3 UNK        -0.4354 
     30 C          26.8342   25.1008    0.2170 C.2       2 UNK         0.4964 
     31 O          27.7579   25.7688    0.6892 O.2       2 UNK        -0.5047 
     32 CA         27.1461   23.7470   -0.4345 C.3       2 UNK         0.0288 
     33 CB         28.1656   23.9116   -1.5747 C.3       2 UNK        -0.2113 
     34 N          27.6818   22.8236    0.5621 N.am      2 UNK        -0.4145 
     35 C          26.9594   22.2416    1.5282 C.2       1 UNK         0.5006 
     36 O          25.7328   22.3487    1.6309 O.2       1 UNK        -0.5103 
     37 C          30.0808   28.5245    1.4188 C.2       5 UNK         0.5055 
     38 O          30.8726   29.3384    1.8931 O.2       5 UNK        -0.5220 
     39 N          29.1044   27.9294    2.1209 N.am      6 UNK        -0.4450 
     40 CA         28.8707   28.1073    3.5534 C.3       6 UNK         0.0367 
     41 CB         27.8118   27.0986    4.0257 C.3       6 UNK        -0.1929 
     42 C          28.4668   29.5370    3.9508 C.2       6 UNK         0.5070 
     43 O          28.9913   30.0531    4.9385 O.2       6 UNK        -0.5237 
     44 N          27.5331   30.1429    3.2025 N.am      7 UNK        -0.4739 
     45 CA         26.9672   31.4670    3.4765 C.3       7 UNK         0.0276 
     46 CB         25.8273   31.7576    2.4863 C.3       7 UNK        -0.1927 
     47 C          28.0280   32.5776    3.4266 C.2       7 UNK         0.5013 
     48 O          28.5671   32.8538    2.3527 O.2       7 UNK        -0.5193 
     49 N          28.3104   33.1758    4.5932 N.am      8 UNK        -0.4253 
     50 CA         29.2602   34.2631    4.8773 C.3       8 UNK         0.0242 
     51 CB         28.8790   35.5525    4.1233 C.3       8 UNK        -0.2000 
     52 C          30.7435   33.9129    4.6529 C.2       8 UNK         0.4948 
     53 O          31.5723   34.2476    5.4997 O.2       8 UNK        -0.5275 
     54 N          31.0577   33.2603    3.5287 N.am      9 UNK        -0.4246 
     55 CA         32.4092   32.8818    3.1179 C.3       9 UNK         0.0261 
     56 CB         32.4123   32.5997    1.6068 C.3       9 UNK        -0.1959 
     57 C          32.9909   31.6889    3.8957 C.2       9 UNK         0.5033 
     58 O          34.2141   31.5317    3.8882 O.2       9 UNK        -0.5390 
     59 N          32.1347   30.8702    4.5285 N.am      10 UNK        -0.4215 
     60 CA         32.4285   29.6540    5.3029 C.3       10 UNK         0.0240 
     61 CB         33.2788   29.9649    6.5517 C.3       10 UNK        -0.1982 
     62 C          33.0362   28.5151    4.4634 C.2       10 UNK         0.4970 
     63 O          32.4172   27.4581    4.3472 O.2       10 UNK        -0.4916 
     64 N          34.2225   28.7625    3.9026 N.am      11 UNK        -0.4279 
     65 CA         34.9247   27.9157    2.9312 C.3       11 UNK         0.1003 
     66 C          35.4250   28.7138    1.6919 C.2       11 UNK         0.5709 
     67 N          35.2773   30.0332    1.6246 N.am      11 UNK        -0.7358 
     68 O          35.9626   28.1202    0.7602 O.2       11 UNK        -0.4999 
     69 C69        36.0880   27.1121    3.5787 C.3       12 UNK        -0.0954 
     70 S70        35.5454   25.8623    4.7921 S.3       12 UNK        -0.2268 
     71 C71        35.6503   24.3260    3.8174 C.3       12 UNK         0.0203 
     72 H72        26.1952   17.2575    3.3045 H         1 UNK         0.0888 
     73 H73        26.2051   17.9174    4.9426 H         1 UNK         0.0888 
     74 H74        25.1215   18.5935    3.7252 H         1 UNK         0.0888 
     75 H75        25.8571   20.5564    2.8757 H         1 UNK         0.3017 
     76 H76        28.5621   20.9137    2.0132 H         1 UNK         0.0873 
     77 H77        27.4934   22.7286    4.2569 H         1 UNK         0.0745 
     78 H78        28.7545   21.5495    4.4724 H         1 UNK         0.0745 
     79 H79        30.8213   21.6152    2.3482 H         1 UNK         0.0705 
     80 H80        31.2533   21.9307    4.0133 H         1 UNK         0.0705 
     81 H81        33.3541   22.9776    4.3734 H         1 UNK         0.1334 
     82 H82        35.2456   25.2690    1.2811 H         1 UNK         0.1417 
     83 H83        31.3139   23.6754    0.6662 H         1 UNK         0.1562 
     84 H84        32.5600   24.6769   -1.2118 H         1 UNK         0.0748 
     85 H85        34.2119   25.1927   -0.9907 H         1 UNK         0.0748 
     86 H86        30.6140   26.0677    0.4844 H         1 UNK         0.0940 
     87 H87        30.5459   26.3442   -1.2342 H         1 UNK         0.0940 
     88 H88        30.7695   28.9257   -0.5651 H         1 UNK         0.0703 
     89 H89        28.2979   27.3255   -0.5888 H         1 UNK         0.3081 
     90 H90        26.2677   30.0707   -1.3847 H         1 UNK         0.0719 
     91 H91        27.2445   29.7604   -3.6657 H         1 UNK         0.0809 
     92 H92        27.2085   28.0148   -3.4606 H         1 UNK         0.0809 
     93 H93        25.7032   28.9341   -3.5203 H         1 UNK         0.0809 
     94 H94        25.7814   27.2628   -1.5665 H         1 UNK         0.2990 
     95 H95        25.2352   26.6517    1.8932 H         1 UNK         0.0690 
     96 H96        23.1139   27.7065    1.0862 H         1 UNK         0.0788 
     97 H97        23.0118   25.9546    1.0728 H         1 UNK         0.0788 
     98 H98        23.2510   26.8370   -0.4361 H         1 UNK         0.0788 
     99 H99        24.8625   24.8734   -0.1941 H         1 UNK         0.2993 
    100 H100       26.2296   23.3225   -0.8505 H         1 UNK         0.0949 
    101 H101       28.3498   22.9630   -2.0795 H         1 UNK         0.0767 
    102 H102       27.8021   24.6127   -2.3273 H         1 UNK         0.0767 
    103 H103       29.1231   24.2875   -1.2126 H         1 UNK         0.0767 
    104 H104       28.6857   22.7268    0.5871 H         1 UNK         0.3013 
    105 H105       28.5226   27.2414    1.6505 H         1 UNK         0.3121 
    106 H106       29.8058   27.8756    4.0654 H         1 UNK         0.0774 
    107 H107       26.8465   27.2768    3.5520 H         1 UNK         0.0815 
    108 H108       28.1103   26.0746    3.8019 H         1 UNK         0.0815 
    109 H109       27.6641   27.1654    5.1042 H         1 UNK         0.0815 
    110 H110       27.1421   29.6456    2.4050 H         1 UNK         0.2987 
    111 H111       26.5357   31.4371    4.4792 H         1 UNK         0.0949 
    112 H112       25.3988   32.7457    2.6595 H         1 UNK         0.0806 
    113 H113       26.1755   31.7280    1.4527 H         1 UNK         0.0806 
    114 H114       25.0198   31.0322    2.5874 H         1 UNK         0.0806 
    115 H115       27.8426   32.8129    5.4129 H         1 UNK         0.3010 
    116 H116       29.1530   34.4693    5.9436 H         1 UNK         0.0829 
    117 H117       28.9626   35.4352    3.0424 H         1 UNK         0.0813 
    118 H118       27.8568   35.8561    4.3491 H         1 UNK         0.0813 
    119 H119       29.5324   36.3777    4.4098 H         1 UNK         0.0813 
    120 H120       30.2926   33.0346    2.8943 H         1 UNK         0.3038 
    121 H121       33.0681   33.7332    3.3016 H         1 UNK         0.0769 
    122 H122       31.7451   31.7771    1.3481 H         1 UNK         0.0811 
    123 H123       33.4105   32.3333    1.2575 H         1 UNK         0.0811 
    124 H124       32.0962   33.4756    1.0401 H         1 UNK         0.0811 
    125 H125       31.1475   31.0619    4.4139 H         1 UNK         0.3204 
    126 H126       31.4627   29.2926    5.6584 H         1 UNK         0.0748 
    127 H127       33.4362   29.0644    7.1469 H         1 UNK         0.0771 
    128 H128       34.2625   30.3598    6.2972 H         1 UNK         0.0771 
    129 H129       32.7834   30.6945    7.1924 H         1 UNK         0.0771 
    130 H130       34.5982   29.6972    4.0297 H         1 UNK         0.2980 
    131 H131       34.2012   27.2116    2.5215 H         1 UNK         0.0545 
    132 H132       34.8628   30.5646    2.3819 H         1 UNK         0.3459 
    133 H133       35.6139   30.5126    0.8054 H         1 UNK         0.3459 
    134 H134       36.7721   27.7948    4.0853 H         1 UNK         0.0616 
    135 H135       36.6876   26.6096    2.8182 H         1 UNK         0.0616 
    136 H136       36.5668   24.3148    3.2258 H         1 UNK         0.0634 
    137 H137       35.7310   23.4855    4.5083 H         1 UNK         0.0634 
@<TRIPOS>BOND
     1    1    2 1    
     2    1   72 1    
     3    1   73 1    
     4    1   74 1    
     5    2    3 2    
     6    2    4 am   BACKBONE|DICT|INTERRES
     7    4    5 1    
     8    4   75 1    
     9    5    6 1    
    10    5   35 1    
    11    5   76 1    
    12    6    7 1    
    13    6   77 1    
    14    6   78 1    
    15    7    8 1    
    16    8    9 1    
    17    8   79 1    
    18    8   80 1    
    19    9   10 ar   
    20    9   14 ar   
    21   10   11 ar   
    22   10   81 1    
    23   11   12 ar   
    24   11   71 1    
    25   12   13 ar   
    26   12   82 1    
    27   13   14 ar   
    28   13   15 1    
    29   14   83 1    
    30   15   16 1    
    31   15   84 1    
    32   15   85 1    
    33   16   17 1    
    34   17   18 1    
    35   17   86 1    
    36   17   87 1    
    37   18   19 1    
    38   18   37 1    
    39   18   88 1    
    40   19   20 am   BACKBONE|DICT|INTERRES
    41   19   89 1    
    42   20   21 2    
    43   20   22 1    
    44   22   23 1    
    45   22   24 1    
    46   22   90 1    
    47   23   91 1    
    48   23   92 1    
    49   23   93 1    
    50   24   25 am   BACKBONE|DICT|INTERRES
    51   24   94 1    
    52   25   26 2    
    53   25   27 1    
    54   27   28 1    
    55   27   29 1    
    56   27   95 1    
    57   28   96 1    
    58   28   97 1    
    59   28   98 1    
    60   29   30 am   BACKBONE|DICT|INTERRES
    61   29   99 1    
    62   30   31 2    
    63   30   32 1    
    64   32   33 1    
    65   32   34 1    
    66   32  100 1    
    67   33  101 1    
    68   33  102 1    
    69   33  103 1    
    70   34   35 am   BACKBONE|DICT|INTERRES
    71   34  104 1    
    72   35   36 2    
    73   37   38 2    
    74   37   39 am   BACKBONE|DICT|INTERRES
    75   39   40 1    
    76   39  105 1    
    77   40   41 1    
    78   40   42 1    
    79   40  106 1    
    80   41  107 1    
    81   41  108 1    
    82   41  109 1    
    83   42   43 2    
    84   42   44 am   BACKBONE|DICT|INTERRES
    85   44   45 1    
    86   44  110 1    
    87   45   46 1    
    88   45   47 1    
    89   45  111 1    
    90   46  112 1    
    91   46  113 1    
    92   46  114 1    
    93   47   48 2    
    94   47   49 am   BACKBONE|DICT|INTERRES
    95   49   50 1    
    96   49  115 1    
    97   50   51 1    
    98   50   52 1    
    99   50  116 1    
   100   51  117 1    
   101   51  118 1    
   102   51  119 1    
   103   52   53 2    
   104   52   54 am   BACKBONE|DICT|INTERRES
   105   54   55 1    
   106   54  120 1    
   107   55   56 1    
   108   55   57 1    
   109   55  121 1    
   110   56  122 1    
   111   56  123 1    
   112   56  124 1    
   113   57   58 2    
   114   57   59 am   BACKBONE|DICT|INTERRES
   115   59   60 1    
   116   59  125 1    
   117   60   61 1    
   118   60   62 1    
   119   60  126 1    
   120   61  127 1    
   121   61  128 1    
   122   61  129 1    
   123   62   63 2    
   124   62   64 am   BACKBONE|DICT|INTERRES
   125   64   65 1    
   126   64  130 1    
   127   65   66 1    
   128   65   69 1    
   129   65  131 1    
   130   66   67 am   BACKBONE|DICT|INTERRES
   131   66   68 2    
   132   67  132 1    
   133   67  133 1    
   134   69   70 1    
   135   69  134 1    
   136   69  135 1    
   137   70   71 1    
   138   71  136 1    
   139   71  137 1    
@<TRIPOS>SUBSTRUCTURE
     1 UNK         1 GROUP             0       ****    0 ROOT    
