@<TRIPOS>MOLECULE
3R136
137   139    1
SMALL
USER_CHARGES


@<TRIPOS>ATOM
      1 CA         27.7372   20.7770   -2.3715 C.3       0 UNK        -0.1979 
      2 C          28.4467   20.6824   -1.0289 C.2       0 UNK         0.4864 
      3 O          28.5237   19.5938   -0.4582 O.2       0 UNK        -0.5359 
      4 N          28.9521   21.8184   -0.5247 N.am      1 UNK        -0.4318 
      5 CA         29.6971   21.9653    0.7383 C.3       1 UNK         0.0824 
      6 C6         31.0599   21.2099    0.7568 C.3       12 UNK        -0.0944 
      7 S7         32.1141   21.5828   -0.6900 S.3       12 UNK        -0.2672 
      8 C8         33.2871   22.8057   -0.0148 C.3       12 UNK         0.0333 
      9 C9         32.5878   24.0517    0.5124 C.ar      12 UNK        -0.0807 
     10 C10        32.7469   24.4354    1.8488 C.ar      12 UNK        -0.0894 
     11 C11        32.0836   25.5602    2.3481 C.ar      12 UNK        -0.0804 
     12 C12        31.2463   26.2912    1.5012 C.ar      12 UNK        -0.0824 
     13 C13        31.0905   25.9278    0.1622 C.ar      12 UNK        -0.0762 
     14 C14        31.7735   24.8145   -0.3322 C.ar      12 UNK        -0.0782 
     15 C15        30.1945   26.7571   -0.7395 C.3       12 UNK         0.0230 
     16 S16        28.4471   26.5989   -0.2590 S.3       12 UNK        -0.2608 
     17 C17        27.7925   28.2110   -0.8210 C.3       12 UNK        -0.0989 
     18 CA         27.6442   29.2786    0.2982 C.3       5 UNK         0.0716 
     19 N          26.8844   28.7632    1.4354 N.am      5 UNK        -0.4135 
     20 C          26.1755   29.4948    2.3022 C.2       4 UNK         0.5031 
     21 O          26.0228   30.7134    2.1896 O.2       4 UNK        -0.5229 
     22 CA         25.5054   28.7389    3.4744 C.3       4 UNK         0.0329 
     23 CB         24.4104   29.5759    4.1624 C.3       4 UNK        -0.2001 
     24 N          24.9357   27.4397    3.0872 N.am      4 UNK        -0.4303 
     25 C          25.6357   26.3180    2.8785 C.2       3 UNK         0.5044 
     26 O          26.8638   26.2567    2.9723 O.2       3 UNK        -0.5152 
     27 CA         24.8523   25.0747    2.4454 C.3       3 UNK         0.0319 
     28 CB         24.3861   25.1968    0.9825 C.3       3 UNK        -0.2001 
     29 N          25.7378   23.9234    2.5847 N.am      3 UNK        -0.4354 
     30 C          25.3690   22.6541    2.7799 C.2       2 UNK         0.4964 
     31 O          24.1948   22.2841    2.8328 O.2       2 UNK        -0.5047 
     32 CA         26.5125   21.6350    2.9112 C.3       2 UNK         0.0288 
     33 CB         26.0349   20.1699    2.8467 C.3       2 UNK        -0.2113 
     34 N          27.5127   21.8775    1.8709 N.am      2 UNK        -0.4145 
     35 C          28.8303   21.6621    1.9857 C.2       1 UNK         0.5006 
     36 O          29.3595   21.2497    3.0203 O.2       1 UNK        -0.5103 
     37 C          29.0004   29.8506    0.7627 C.2       5 UNK         0.5055 
     38 O          29.4996   29.4859    1.8319 O.2       5 UNK        -0.5220 
     39 N          29.5788   30.7372   -0.0558 N.am      6 UNK        -0.4450 
     40 CA         30.8970   31.3228    0.1791 C.3       6 UNK         0.0367 
     41 CB         30.9724   32.7009   -0.4966 C.3       6 UNK        -0.1929 
     42 C          32.0058   30.3996   -0.3475 C.2       6 UNK         0.5070 
     43 O          31.8922   29.8700   -1.4546 O.2       6 UNK        -0.5237 
     44 N          33.0713   30.2758    0.4429 N.am      7 UNK        -0.4739 
     45 CA         34.3195   29.5728    0.1474 C.3       7 UNK         0.0276 
     46 CB         34.1447   28.0424    0.1896 C.3       7 UNK        -0.1927 
     47 C          35.3347   30.0767    1.1754 C.2       7 UNK         0.5013 
     48 O          36.3234   30.7114    0.8066 O.2       7 UNK        -0.5193 
     49 N          34.9769   29.9011    2.4545 N.am      8 UNK        -0.4253 
     50 CA         35.3355   30.8161    3.5375 C.3       8 UNK         0.0242 
     51 CB         35.5647   30.0101    4.8292 C.3       8 UNK        -0.2000 
     52 C          34.2028   31.8562    3.6799 C.2       8 UNK         0.4948 
     53 O          33.3466   31.9567    2.7924 O.2       8 UNK        -0.5275 
     54 N          34.2020   32.6155    4.7828 N.am      9 UNK        -0.4246 
     55 CA         33.2318   33.6729    5.0928 C.3       9 UNK         0.0261 
     56 CB         33.7733   34.5112    6.2664 C.3       9 UNK        -0.1959 
     57 C          31.8081   33.1371    5.3639 C.2       9 UNK         0.5033 
     58 O          31.3672   33.1183    6.5148 O.2       9 UNK        -0.5390 
     59 N          31.1292   32.7108    4.2891 N.am      10 UNK        -0.4215 
     60 CA         29.7666   32.1642    4.2303 C.3       10 UNK         0.0240 
     61 CB         28.7249   33.2570    4.5505 C.3       10 UNK        -0.1982 
     62 C          29.5938   30.8941    5.0859 C.2       10 UNK         0.4970 
     63 O          28.6132   30.7734    5.8234 O.2       10 UNK        -0.4916 
     64 N          30.5662   29.9789    4.9839 N.am      11 UNK        -0.4279 
     65 CA         30.5808   28.6948    5.6998 C.3       11 UNK         0.1003 
     66 C          29.4748   27.6908    5.2674 C.2       11 UNK         0.5709 
     67 N          28.9419   27.7847    4.0573 N.am      11 UNK        -0.7358 
     68 O          29.1019   26.8168    6.0463 O.2       11 UNK        -0.4999 
     69 C69        31.9901   28.0434    5.6871 C.3       12 UNK        -0.0954 
     70 S70        32.6427   27.7284    4.0094 S.3       12 UNK        -0.2268 
     71 C71        32.2324   25.9611    3.8093 C.3       12 UNK         0.0203 
     72 H72        27.7327   21.7949   -2.7609 H         1 UNK         0.0888 
     73 H73        28.2323   20.1377   -3.1019 H         1 UNK         0.0888 
     74 H74        26.7033   20.4466   -2.2739 H         1 UNK         0.0888 
     75 H75        28.8542   22.6709   -1.0584 H         1 UNK         0.3017 
     76 H76        29.9190   23.0296    0.8194 H         1 UNK         0.0873 
     77 H77        31.6177   21.4471    1.6646 H         1 UNK         0.0745 
     78 H78        30.8951   20.1315    0.7814 H         1 UNK         0.0745 
     79 H79        33.9853   23.0971   -0.8006 H         1 UNK         0.0705 
     80 H80        33.8827   22.3299    0.7659 H         1 UNK         0.0705 
     81 H81        33.3784   23.8513    2.5043 H         1 UNK         0.1334 
     82 H82        30.7143   27.1513    1.8837 H         1 UNK         0.1417 
     83 H83        31.6557   24.5237   -1.3673 H         1 UNK         0.1562 
     84 H84        30.3095   26.4724   -1.7863 H         1 UNK         0.0748 
     85 H85        30.5084   27.7966   -0.6656 H         1 UNK         0.0748 
     86 H86        26.8092   28.0196   -1.2535 H         1 UNK         0.0940 
     87 H87        28.3955   28.5892   -1.6489 H         1 UNK         0.0940 
     88 H88        27.0791   30.1123   -0.1246 H         1 UNK         0.0703 
     89 H89        27.0283   27.7823    1.6492 H         1 UNK         0.3081 
     90 H90        26.2868   28.5625    4.2160 H         1 UNK         0.0719 
     91 H91        23.9801   29.0459    5.0123 H         1 UNK         0.0809 
     92 H92        24.8161   30.5139    4.5442 H         1 UNK         0.0809 
     93 H93        23.6013   29.8250    3.4747 H         1 UNK         0.0809 
     94 H94        23.9356   27.4161    2.9476 H         1 UNK         0.2990 
     95 H95        23.9912   24.9586    3.1069 H         1 UNK         0.0690 
     96 H96        23.8435   24.3069    0.6631 H         1 UNK         0.0788 
     97 H97        25.2288   25.3360    0.3035 H         1 UNK         0.0788 
     98 H98        23.7157   26.0466    0.8497 H         1 UNK         0.0788 
     99 H99        26.7195   24.1744    2.6184 H         1 UNK         0.2993 
    100 H100       26.9624   21.8067    3.8916 H         1 UNK         0.0949 
    101 H101       25.3072   19.9582    3.6311 H         1 UNK         0.0767 
    102 H102       25.5636   19.9442    1.8893 H         1 UNK         0.0767 
    103 H103       26.8650   19.4763    2.9816 H         1 UNK         0.0767 
    104 H104       27.1587   22.2305    0.9924 H         1 UNK         0.3013 
    105 H105       29.1417   30.9564   -0.9393 H         1 UNK         0.3121 
    106 H106       31.0365   31.4681    1.2523 H         1 UNK         0.0774 
    107 H107       31.9387   33.1717   -0.3102 H         1 UNK         0.0815 
    108 H108       30.8478   32.6296   -1.5779 H         1 UNK         0.0815 
    109 H109       30.2058   33.3739   -0.1123 H         1 UNK         0.0815 
    110 H110       33.0952   30.8296    1.2985 H         1 UNK         0.2987 
    111 H111       34.6618   29.8661   -0.8472 H         1 UNK         0.0949 
    112 H112       33.7665   27.6987    1.1516 H         1 UNK         0.0806 
    113 H113       33.4510   27.7002   -0.5782 H         1 UNK         0.0806 
    114 H114       35.0947   27.5370    0.0133 H         1 UNK         0.0806 
    115 H115       34.1499   29.3448    2.6259 H         1 UNK         0.3010 
    116 H116       36.2550   31.3510    3.2906 H         1 UNK         0.0829 
    117 H117       36.2552   29.1833    4.6607 H         1 UNK         0.0813 
    118 H118       35.9996   30.6301    5.6136 H         1 UNK         0.0813 
    119 H119       34.6375   29.5926    5.2187 H         1 UNK         0.0813 
    120 H120       34.9193   32.4554    5.4753 H         1 UNK         0.3038 
    121 H121       33.1661   34.3333    4.2251 H         1 UNK         0.0769 
    122 H122       33.9101   33.9088    7.1656 H         1 UNK         0.0811 
    123 H123       34.7313   34.9693    6.0197 H         1 UNK         0.0811 
    124 H124       33.0858   35.3200    6.5180 H         1 UNK         0.0811 
    125 H125       31.6637   32.6683    3.4253 H         1 UNK         0.3204 
    126 H126       29.6018   31.8556    3.1978 H         1 UNK         0.0748 
    127 H127       27.7108   32.8855    4.3958 H         1 UNK         0.0771 
    128 H128       28.7954   33.5930    5.5855 H         1 UNK         0.0771 
    129 H129       28.8516   34.1264    3.9055 H         1 UNK         0.0771 
    130 H130       31.3176   30.1285    4.3284 H         1 UNK         0.2980 
    131 H131       30.3622   28.9292    6.7435 H         1 UNK         0.0545 
    132 H132       28.2298   27.1176    3.7736 H         1 UNK         0.3459 
    133 H133       29.2618   28.4839    3.3929 H         1 UNK         0.3459 
    134 H134       31.9951   27.1167    6.2641 H         1 UNK         0.0616 
    135 H135       32.6916   28.7028    6.1986 H         1 UNK         0.0616 
    136 H136       31.2959   25.7301    4.3160 H         1 UNK         0.0634 
    137 H137       33.0050   25.3689    4.3016 H         1 UNK         0.0634 
@<TRIPOS>BOND
     1    1    2 1    
     2    1   72 1    
     3    1   73 1    
     4    1   74 1    
     5    2    3 2    
     6    2    4 am   BACKBONE|DICT|INTERRES
     7    4    5 1    
     8    4   75 1    
     9    5    6 1    
    10    5   35 1    
    11    5   76 1    
    12    6    7 1    
    13    6   77 1    
    14    6   78 1    
    15    7    8 1    
    16    8    9 1    
    17    8   79 1    
    18    8   80 1    
    19    9   10 ar   
    20    9   14 ar   
    21   10   11 ar   
    22   10   81 1    
    23   11   12 ar   
    24   11   71 1    
    25   12   13 ar   
    26   12   82 1    
    27   13   14 ar   
    28   13   15 1    
    29   14   83 1    
    30   15   16 1    
    31   15   84 1    
    32   15   85 1    
    33   16   17 1    
    34   17   18 1    
    35   17   86 1    
    36   17   87 1    
    37   18   19 1    
    38   18   37 1    
    39   18   88 1    
    40   19   20 am   BACKBONE|DICT|INTERRES
    41   19   89 1    
    42   20   21 2    
    43   20   22 1    
    44   22   23 1    
    45   22   24 1    
    46   22   90 1    
    47   23   91 1    
    48   23   92 1    
    49   23   93 1    
    50   24   25 am   BACKBONE|DICT|INTERRES
    51   24   94 1    
    52   25   26 2    
    53   25   27 1    
    54   27   28 1    
    55   27   29 1    
    56   27   95 1    
    57   28   96 1    
    58   28   97 1    
    59   28   98 1    
    60   29   30 am   BACKBONE|DICT|INTERRES
    61   29   99 1    
    62   30   31 2    
    63   30   32 1    
    64   32   33 1    
    65   32   34 1    
    66   32  100 1    
    67   33  101 1    
    68   33  102 1    
    69   33  103 1    
    70   34   35 am   BACKBONE|DICT|INTERRES
    71   34  104 1    
    72   35   36 2    
    73   37   38 2    
    74   37   39 am   BACKBONE|DICT|INTERRES
    75   39   40 1    
    76   39  105 1    
    77   40   41 1    
    78   40   42 1    
    79   40  106 1    
    80   41  107 1    
    81   41  108 1    
    82   41  109 1    
    83   42   43 2    
    84   42   44 am   BACKBONE|DICT|INTERRES
    85   44   45 1    
    86   44  110 1    
    87   45   46 1    
    88   45   47 1    
    89   45  111 1    
    90   46  112 1    
    91   46  113 1    
    92   46  114 1    
    93   47   48 2    
    94   47   49 am   BACKBONE|DICT|INTERRES
    95   49   50 1    
    96   49  115 1    
    97   50   51 1    
    98   50   52 1    
    99   50  116 1    
   100   51  117 1    
   101   51  118 1    
   102   51  119 1    
   103   52   53 2    
   104   52   54 am   BACKBONE|DICT|INTERRES
   105   54   55 1    
   106   54  120 1    
   107   55   56 1    
   108   55   57 1    
   109   55  121 1    
   110   56  122 1    
   111   56  123 1    
   112   56  124 1    
   113   57   58 2    
   114   57   59 am   BACKBONE|DICT|INTERRES
   115   59   60 1    
   116   59  125 1    
   117   60   61 1    
   118   60   62 1    
   119   60  126 1    
   120   61  127 1    
   121   61  128 1    
   122   61  129 1    
   123   62   63 2    
   124   62   64 am   BACKBONE|DICT|INTERRES
   125   64   65 1    
   126   64  130 1    
   127   65   66 1    
   128   65   69 1    
   129   65  131 1    
   130   66   67 am   BACKBONE|DICT|INTERRES
   131   66   68 2    
   132   67  132 1    
   133   67  133 1    
   134   69   70 1    
   135   69  134 1    
   136   69  135 1    
   137   70   71 1    
   138   71  136 1    
   139   71  137 1    
@<TRIPOS>SUBSTRUCTURE
     1 UNK         1 GROUP             0       ****    0 ROOT    
