@<TRIPOS>MOLECULE
3R136
137   139    1
SMALL
USER_CHARGES


@<TRIPOS>ATOM
      1 CA         26.2725   20.7210    3.3391 C.3       0 UNK        -0.1979 
      2 C          26.6480   21.8993    2.4543 C.2       0 UNK         0.4864 
      3 O          26.1470   22.0088    1.3351 O.2       0 UNK        -0.5359 
      4 N          27.5100   22.7977    2.9521 N.am      1 UNK        -0.4318 
      5 CA         28.0506   23.9618    2.2306 C.3       1 UNK         0.0824 
      6 C6         29.1474   24.6957    3.0410 C.3       12 UNK        -0.0944 
      7 S7         30.4502   23.5830    3.6810 S.3       12 UNK        -0.2672 
      8 C8         31.5406   23.3580    2.2368 C.3       12 UNK         0.0333 
      9 C9         32.1525   24.6688    1.7656 C.ar      12 UNK        -0.0807 
     10 C10        33.0844   25.3394    2.5640 C.ar      12 UNK        -0.0894 
     11 C11        33.6100   26.5717    2.1633 C.ar      12 UNK        -0.0804 
     12 C12        33.2060   27.1208    0.9411 C.ar      12 UNK        -0.0824 
     13 C13        32.2862   26.4520    0.1278 C.ar      12 UNK        -0.0762 
     14 C14        31.7650   25.2242    0.5430 C.ar      12 UNK        -0.0782 
     15 C15        31.8079   27.0901   -1.1655 C.3       12 UNK         0.0230 
     16 S16        30.6629   28.4388   -0.7699 S.3       12 UNK        -0.2608 
     17 C17        29.8508   28.8011   -2.3635 C.3       12 UNK        -0.0989 
     18 CA         28.3509   28.4068   -2.3875 C.3       5 UNK         0.0716 
     19 N          28.1861   26.9527   -2.3184 N.am      5 UNK        -0.4135 
     20 C          27.0988   26.2816   -2.7167 C.2       4 UNK         0.5031 
     21 O          26.0914   26.8286   -3.1687 O.2       4 UNK        -0.5229 
     22 CA         27.1405   24.7461   -2.6160 C.3       4 UNK         0.0329 
     23 CB         28.4770   24.1751   -2.0926 C.3       4 UNK        -0.2001 
     24 N          26.0613   24.3075   -1.7380 N.am      4 UNK        -0.4303 
     25 C          24.8705   23.8380   -2.1352 C.2       3 UNK         0.5044 
     26 O          24.5684   23.6424   -3.3136 O.2       3 UNK        -0.5152 
     27 CA         23.8361   23.5147   -1.0395 C.3       3 UNK         0.0319 
     28 CB         23.6045   21.9974   -0.9415 C.3       3 UNK        -0.2001 
     29 N          24.2308   24.0267    0.2764 N.am      3 UNK        -0.4354 
     30 C          24.0027   25.2814    0.6951 C.2       2 UNK         0.4964 
     31 O          23.3591   26.1082    0.0494 O.2       2 UNK        -0.5047 
     32 CA         24.5988   25.7012    2.0523 C.3       2 UNK         0.0288 
     33 CB         23.5511   25.5508    3.1668 C.3       2 UNK        -0.2113 
     34 N          25.8069   24.9624    2.4283 N.am      2 UNK        -0.4145 
     35 C          26.9697   24.9608    1.7579 C.2       1 UNK         0.5006 
     36 O          27.1902   25.6708    0.7742 O.2       1 UNK        -0.5103 
     37 C          27.5418   29.1693   -1.3109 C.2       5 UNK         0.5055 
     38 O          27.2434   30.3469   -1.5171 O.2       5 UNK        -0.5220 
     39 N          27.2392   28.5052   -0.1819 N.am      6 UNK        -0.4450 
     40 CA         26.6039   29.0488    1.0249 C.3       6 UNK         0.0367 
     41 CB         25.1468   29.4733    0.7428 C.3       6 UNK        -0.1929 
     42 C          27.4285   30.1435    1.7361 C.2       6 UNK         0.5070 
     43 O          26.8508   31.0291    2.3696 O.2       6 UNK        -0.5237 
     44 N          28.7631   30.0571    1.6464 N.am      7 UNK        -0.4739 
     45 CA         29.7019   30.9014    2.3913 C.3       7 UNK         0.0276 
     46 CB         31.0822   30.8457    1.7137 C.3       7 UNK        -0.1927 
     47 C          29.8177   30.4655    3.8629 C.2       7 UNK         0.5013 
     48 O          29.4310   29.3475    4.2160 O.2       7 UNK        -0.5193 
     49 N          30.3816   31.3552    4.6896 N.am      8 UNK        -0.4253 
     50 CA         30.7211   31.0897    6.0886 C.3       8 UNK         0.0242 
     51 CB         31.0644   32.4201    6.7796 C.3       8 UNK        -0.2000 
     52 C          31.8999   30.1093    6.2093 C.2       8 UNK         0.4948 
     53 O          32.7616   30.0729    5.3269 O.2       8 UNK        -0.5275 
     54 N          31.9509   29.3834    7.3354 N.am      9 UNK        -0.4246 
     55 CA         32.9554   28.3581    7.6549 C.3       9 UNK         0.0261 
     56 CB         32.5861   27.6928    8.9910 C.3       9 UNK        -0.1959 
     57 C          34.4162   28.8505    7.6867 C.2       9 UNK         0.5033 
     58 O          35.3258   28.0301    7.5580 O.2       9 UNK        -0.5390 
     59 N          34.6194   30.1684    7.8305 N.am      10 UNK        -0.4215 
     60 CA         35.9133   30.8424    7.6897 C.3       10 UNK         0.0240 
     61 CB         35.7684   32.3086    8.1295 C.3       10 UNK        -0.1982 
     62 C          36.4948   30.7627    6.2635 C.2       10 UNK         0.4970 
     63 O          37.7151   30.8344    6.1152 O.2       10 UNK        -0.4916 
     64 N          35.6252   30.6025    5.2543 N.am      11 UNK        -0.4279 
     65 CA         35.9658   30.3851    3.8402 C.3       11 UNK         0.1003 
     66 C          36.6437   31.5889    3.1171 C.2       11 UNK         0.5709 
     67 N          36.5782   32.8006    3.6566 N.am      11 UNK        -0.7358 
     68 O          37.2102   31.4361    2.0375 O.2       11 UNK        -0.4999 
     69 C69        36.6927   29.0205    3.6246 C.3       12 UNK        -0.0954 
     70 S70        35.9844   28.0634    2.2466 S.3       12 UNK        -0.2268 
     71 C71        34.5445   27.3343    3.0956 C.3       12 UNK         0.0203 
     72 H72        25.1977   20.7138    3.5178 H         1 UNK         0.0888 
     73 H73        26.5430   19.7858    2.8499 H         1 UNK         0.0888 
     74 H74        26.7778   20.7581    4.3039 H         1 UNK         0.0888 
     75 H75        27.8990   22.6504    3.8734 H         1 UNK         0.3017 
     76 H76        28.5153   23.5714    1.3232 H         1 UNK         0.0873 
     77 H77        28.7041   25.1996    3.9022 H         1 UNK         0.0745 
     78 H78        29.6068   25.4856    2.4440 H         1 UNK         0.0745 
     79 H79        30.9779   22.8769    1.4353 H         1 UNK         0.0705 
     80 H80        32.3407   22.6665    2.5046 H         1 UNK         0.0705 
     81 H81        33.3697   24.9144    3.5169 H         1 UNK         0.1334 
     82 H82        33.5819   28.0871    0.6338 H         1 UNK         0.1417 
     83 H83        31.0376   24.7134   -0.0724 H         1 UNK         0.1562 
     84 H84        31.3152   26.3539   -1.8021 H         1 UNK         0.0748 
     85 H85        32.6559   27.4805   -1.7303 H         1 UNK         0.0748 
     86 H86        30.3856   28.3027   -3.1737 H         1 UNK         0.0940 
     87 H87        29.9580   29.8698   -2.5601 H         1 UNK         0.0940 
     88 H88        27.9525   28.7292   -3.3522 H         1 UNK         0.0703 
     89 H89        28.9615   26.4343   -1.9358 H         1 UNK         0.3081 
     90 H90        26.9873   24.3577   -3.6248 H         1 UNK         0.0719 
     91 H91        28.4416   23.0862   -2.0525 H         1 UNK         0.0809 
     92 H92        29.3060   24.4375   -2.7514 H         1 UNK         0.0809 
     93 H93        28.7165   24.5278   -1.0897 H         1 UNK         0.0809 
     94 H94        26.1933   24.4995   -0.7535 H         1 UNK         0.2990 
     95 H95        22.8925   23.9780   -1.3357 H         1 UNK         0.0690 
     96 H96        23.2327   21.5984   -1.8862 H         1 UNK         0.0788 
     97 H97        22.8670   21.7560   -0.1759 H         1 UNK         0.0788 
     98 H98        24.5242   21.4621   -0.7035 H         1 UNK         0.0788 
     99 H99        24.7931   23.4001    0.8459 H         1 UNK         0.2993 
    100 H100       24.8603   26.7561    1.9756 H         1 UNK         0.0949 
    101 H101       23.2594   24.5093    3.3093 H         1 UNK         0.0767 
    102 H102       23.9256   25.9295    4.1181 H         1 UNK         0.0767 
    103 H103       22.6465   26.1134    2.9305 H         1 UNK         0.0767 
    104 H104       25.7255   24.3432    3.2216 H         1 UNK         0.3013 
    105 H105       27.5067   27.5284   -0.1133 H         1 UNK         0.3121 
    106 H106       26.5744   28.2228    1.7346 H         1 UNK         0.0774 
    107 H107       25.0993   30.3607    0.1114 H         1 UNK         0.0815 
    108 H108       24.6207   29.7060    1.6693 H         1 UNK         0.0815 
    109 H109       24.5902   28.6788    0.2458 H         1 UNK         0.0815 
    110 H110       29.1645   29.2951    1.1169 H         1 UNK         0.2987 
    111 H111       29.3397   31.9316    2.3637 H         1 UNK         0.0949 
    112 H112       31.5120   29.8439    1.7589 H         1 UNK         0.0806 
    113 H113       31.0241   31.1427    0.6665 H         1 UNK         0.0806 
    114 H114       31.7895   31.5194    2.1989 H         1 UNK         0.0806 
    115 H115       30.7054   32.2324    4.3092 H         1 UNK         0.3010 
    116 H116       29.8469   30.6517    6.5756 H         1 UNK         0.0829 
    117 H117       30.2339   33.1239    6.7198 H         1 UNK         0.0813 
    118 H118       31.2809   32.2704    7.8382 H         1 UNK         0.0813 
    119 H119       31.9389   32.8948    6.3320 H         1 UNK         0.0813 
    120 H120       31.2119   29.5033    8.0141 H         1 UNK         0.3038 
    121 H121       32.8985   27.6006    6.8702 H         1 UNK         0.0769 
    122 H122       32.5920   28.4088    9.8139 H         1 UNK         0.0811 
    123 H123       33.2941   26.9018    9.2431 H         1 UNK         0.0811 
    124 H124       31.5975   27.2353    8.9486 H         1 UNK         0.0811 
    125 H125       33.8093   30.7580    7.9490 H         1 UNK         0.3204 
    126 H126       36.6216   30.3500    8.3592 H         1 UNK         0.0748 
    127 H127       36.7223   32.8333    8.0586 H         1 UNK         0.0771 
    128 H128       35.0521   32.8489    7.5092 H         1 UNK         0.0771 
    129 H129       35.4383   32.3814    9.1660 H         1 UNK         0.0771 
    130 H130       34.6320   30.5408    5.4609 H         1 UNK         0.2980 
    131 H131       34.9874   30.3268    3.3626 H         1 UNK         0.0545 
    132 H132       36.1103   32.9426    4.5367 H         1 UNK         0.3459 
    133 H133       37.0092   33.5769    3.1801 H         1 UNK         0.3459 
    134 H134       37.7613   29.1585    3.4504 H         1 UNK         0.0616 
    135 H135       36.6296   28.3952    4.5172 H         1 UNK         0.0616 
    136 H136       33.9703   28.1253    3.5801 H         1 UNK         0.0634 
    137 H137       34.9072   26.6823    3.8919 H         1 UNK         0.0634 
@<TRIPOS>BOND
     1    1    2 1    
     2    1   72 1    
     3    1   73 1    
     4    1   74 1    
     5    2    3 2    
     6    2    4 am   BACKBONE|DICT|INTERRES
     7    4    5 1    
     8    4   75 1    
     9    5    6 1    
    10    5   35 1    
    11    5   76 1    
    12    6    7 1    
    13    6   77 1    
    14    6   78 1    
    15    7    8 1    
    16    8    9 1    
    17    8   79 1    
    18    8   80 1    
    19    9   10 ar   
    20    9   14 ar   
    21   10   11 ar   
    22   10   81 1    
    23   11   12 ar   
    24   11   71 1    
    25   12   13 ar   
    26   12   82 1    
    27   13   14 ar   
    28   13   15 1    
    29   14   83 1    
    30   15   16 1    
    31   15   84 1    
    32   15   85 1    
    33   16   17 1    
    34   17   18 1    
    35   17   86 1    
    36   17   87 1    
    37   18   19 1    
    38   18   37 1    
    39   18   88 1    
    40   19   20 am   BACKBONE|DICT|INTERRES
    41   19   89 1    
    42   20   21 2    
    43   20   22 1    
    44   22   23 1    
    45   22   24 1    
    46   22   90 1    
    47   23   91 1    
    48   23   92 1    
    49   23   93 1    
    50   24   25 am   BACKBONE|DICT|INTERRES
    51   24   94 1    
    52   25   26 2    
    53   25   27 1    
    54   27   28 1    
    55   27   29 1    
    56   27   95 1    
    57   28   96 1    
    58   28   97 1    
    59   28   98 1    
    60   29   30 am   BACKBONE|DICT|INTERRES
    61   29   99 1    
    62   30   31 2    
    63   30   32 1    
    64   32   33 1    
    65   32   34 1    
    66   32  100 1    
    67   33  101 1    
    68   33  102 1    
    69   33  103 1    
    70   34   35 am   BACKBONE|DICT|INTERRES
    71   34  104 1    
    72   35   36 2    
    73   37   38 2    
    74   37   39 am   BACKBONE|DICT|INTERRES
    75   39   40 1    
    76   39  105 1    
    77   40   41 1    
    78   40   42 1    
    79   40  106 1    
    80   41  107 1    
    81   41  108 1    
    82   41  109 1    
    83   42   43 2    
    84   42   44 am   BACKBONE|DICT|INTERRES
    85   44   45 1    
    86   44  110 1    
    87   45   46 1    
    88   45   47 1    
    89   45  111 1    
    90   46  112 1    
    91   46  113 1    
    92   46  114 1    
    93   47   48 2    
    94   47   49 am   BACKBONE|DICT|INTERRES
    95   49   50 1    
    96   49  115 1    
    97   50   51 1    
    98   50   52 1    
    99   50  116 1    
   100   51  117 1    
   101   51  118 1    
   102   51  119 1    
   103   52   53 2    
   104   52   54 am   BACKBONE|DICT|INTERRES
   105   54   55 1    
   106   54  120 1    
   107   55   56 1    
   108   55   57 1    
   109   55  121 1    
   110   56  122 1    
   111   56  123 1    
   112   56  124 1    
   113   57   58 2    
   114   57   59 am   BACKBONE|DICT|INTERRES
   115   59   60 1    
   116   59  125 1    
   117   60   61 1    
   118   60   62 1    
   119   60  126 1    
   120   61  127 1    
   121   61  128 1    
   122   61  129 1    
   123   62   63 2    
   124   62   64 am   BACKBONE|DICT|INTERRES
   125   64   65 1    
   126   64  130 1    
   127   65   66 1    
   128   65   69 1    
   129   65  131 1    
   130   66   67 am   BACKBONE|DICT|INTERRES
   131   66   68 2    
   132   67  132 1    
   133   67  133 1    
   134   69   70 1    
   135   69  134 1    
   136   69  135 1    
   137   70   71 1    
   138   71  136 1    
   139   71  137 1    
@<TRIPOS>SUBSTRUCTURE
     1 UNK         1 GROUP             0       ****    0 ROOT    
