@<TRIPOS>MOLECULE
3R136
137   139    1
SMALL
USER_CHARGES


@<TRIPOS>ATOM
      1 CA         26.5304   23.7314    3.5709 C.3       0 UNK        -0.1979 
      2 C          26.8448   22.2977    3.1680 C.2       0 UNK         0.4864 
      3 O          26.9432   21.4235    4.0302 O.2       0 UNK        -0.5359 
      4 N          27.0044   22.0553    1.8647 N.am      1 UNK        -0.4318 
      5 CA         27.3643   20.7625    1.2766 C.3       1 UNK         0.0824 
      6 C6         28.8796   20.4164    1.3877 C.3       12 UNK        -0.0944 
      7 S7         30.0145   21.8285    1.1111 S.3       12 UNK        -0.2672 
      8 C8         30.7995   21.9724    2.7486 C.3       12 UNK         0.0333 
      9 C9         31.1388   23.4146    3.0908 C.ar      12 UNK        -0.0807 
     10 C10        32.2344   24.0470    2.4929 C.ar      12 UNK        -0.0894 
     11 C11        32.5669   25.3597    2.8411 C.ar      12 UNK        -0.0804 
     12 C12        31.7958   26.0356    3.7885 C.ar      12 UNK        -0.0824 
     13 C13        30.7041   25.4156    4.3963 C.ar      12 UNK        -0.0762 
     14 C14        30.3760   24.1050    4.0394 C.ar      12 UNK        -0.0782 
     15 C15        29.9043   26.1490    5.4619 C.3       12 UNK         0.0230 
     16 S16        28.4287   26.9516    4.7703 S.3       12 UNK        -0.2608 
     17 C17        29.1264   28.4107    3.9161 C.3       12 UNK        -0.0989 
     18 CA         29.1835   28.2487    2.3739 C.3       5 UNK         0.0716 
     19 N          27.9016   27.7930    1.8280 N.am      5 UNK        -0.4135 
     20 C          27.6851   27.3936    0.5695 C.2       4 UNK         0.5031 
     21 O          28.5658   27.3042   -0.2900 O.2       4 UNK        -0.5229 
     22 CA         26.2207   27.0907    0.2081 C.3       4 UNK         0.0329 
     23 CB         25.4509   28.3973   -0.0504 C.3       4 UNK        -0.2001 
     24 N          26.1255   26.2456   -0.9823 N.am      4 UNK        -0.4303 
     25 C          26.3652   24.9305   -0.9953 C.2       3 UNK         0.5044 
     26 O          26.6117   24.2622    0.0150 O.2       3 UNK        -0.5152 
     27 CA         26.3451   24.2576   -2.3792 C.3       3 UNK         0.0319 
     28 CB         27.7286   24.3552   -3.0418 C.3       3 UNK        -0.2001 
     29 N          25.9875   22.8496   -2.2440 N.am      3 UNK        -0.4354 
     30 C          24.7518   22.3924   -2.0158 C.2       2 UNK         0.4964 
     31 O          23.7313   23.0665   -2.1608 O.2       2 UNK        -0.5047 
     32 CA         24.6426   20.9610   -1.4618 C.3       2 UNK         0.0288 
     33 CB         24.9105   19.8969   -2.5457 C.3       2 UNK        -0.2113 
     34 N          25.4698   20.7666   -0.2585 N.am      2 UNK        -0.4145 
     35 C          26.8091   20.7343   -0.1556 C.2       1 UNK         0.5006 
     36 O          27.5730   20.7608   -1.1232 O.2       1 UNK        -0.5103 
     37 C          29.5720   29.5721    1.6821 C.2       5 UNK         0.5055 
     38 O          28.8914   30.5783    1.8943 O.2       5 UNK        -0.5220 
     39 N          30.5989   29.5373    0.8218 N.am      6 UNK        -0.4450 
     40 CA         30.8891   30.5728   -0.1787 C.3       6 UNK         0.0367 
     41 CB         32.0208   30.0937   -1.1018 C.3       6 UNK        -0.1929 
     42 C          31.2011   31.9757    0.3711 C.2       6 UNK         0.5070 
     43 O          30.9739   32.9531   -0.3427 O.2       6 UNK        -0.5237 
     44 N          31.7012   32.0613    1.6090 N.am      7 UNK        -0.4739 
     45 CA         31.9766   33.3191    2.3083 C.3       7 UNK         0.0276 
     46 CB         33.4607   33.3419    2.7175 C.3       7 UNK        -0.1927 
     47 C          31.0625   33.5009    3.5322 C.2       7 UNK         0.5013 
     48 O          31.3244   34.3946    4.3397 O.2       7 UNK        -0.5193 
     49 N          30.0385   32.6431    3.6819 N.am      8 UNK        -0.4253 
     50 CA         29.1664   32.4518    4.8503 C.3       8 UNK         0.0242 
     51 CB         28.3564   33.7181    5.1942 C.3       8 UNK        -0.2000 
     52 C          29.9410   31.9072    6.0625 C.2       8 UNK         0.4948 
     53 O          29.6760   30.7895    6.5068 O.2       8 UNK        -0.5275 
     54 N          30.9290   32.6762    6.5337 N.am      9 UNK        -0.4246 
     55 CA         31.9633   32.2502    7.4705 C.3       9 UNK         0.0261 
     56 CB         32.5651   33.4939    8.1498 C.3       9 UNK        -0.1959 
     57 C          33.0147   31.4289    6.7043 C.2       9 UNK         0.5033 
     58 O          34.0594   31.9630    6.3270 O.2       9 UNK        -0.5390 
     59 N          32.6798   30.1569    6.4527 N.am      10 UNK        -0.4215 
     60 CA         33.4135   29.1906    5.6307 C.3       10 UNK         0.0240 
     61 CB         34.8193   28.9006    6.2078 C.3       10 UNK        -0.1982 
     62 C          33.3980   29.5874    4.1383 C.2       10 UNK         0.4970 
     63 O          32.3630   30.0482    3.6500 O.2       10 UNK        -0.4916 
     64 N          34.5132   29.3623    3.4367 N.am      11 UNK        -0.4279 
     65 CA         34.7215   29.6846    2.0185 C.3       11 UNK         0.1003 
     66 C          35.9904   30.5588    1.8502 C.2       11 UNK         0.5709 
     67 N          36.0701   31.3357    0.7786 N.am      11 UNK        -0.7358 
     68 O          36.9147   30.5189    2.6613 O.2       11 UNK        -0.4999 
     69 C69        34.8157   28.4084    1.1370 C.3       12 UNK        -0.0954 
     70 S70        33.2822   27.4213    1.1485 S.3       12 UNK        -0.2268 
     71 C71        33.7767   26.0498    2.2341 C.3       12 UNK         0.0203 
     72 H72        26.8277   24.4400    2.7974 H         1 UNK         0.0888 
     73 H73        25.4621   23.8463    3.7507 H         1 UNK         0.0888 
     74 H74        27.0602   23.9955    4.4856 H         1 UNK         0.0888 
     75 H75        26.9094   22.8204    1.1965 H         1 UNK         0.3017 
     76 H76        26.8192   19.9813    1.8116 H         1 UNK         0.0873 
     77 H77        29.0656   19.9936    2.3753 H         1 UNK         0.0745 
     78 H78        29.1493   19.6169    0.6950 H         1 UNK         0.0745 
     79 H79        30.1429   21.5646    3.5184 H         1 UNK         0.0705 
     80 H80        31.7046   21.3637    2.7662 H         1 UNK         0.0705 
     81 H81        32.8298   23.5122    1.7652 H         1 UNK         0.1334 
     82 H82        32.0479   27.0505    4.0471 H         1 UNK         0.1417 
     83 H83        29.5347   23.6177    4.5128 H         1 UNK         0.1562 
     84 H84        30.5221   26.8886    5.9735 H         1 UNK         0.0748 
     85 H85        29.5871   25.4411    6.2292 H         1 UNK         0.0748 
     86 H86        30.1164   28.6368    4.3149 H         1 UNK         0.0940 
     87 H87        28.5000   29.2615    4.1900 H         1 UNK         0.0940 
     88 H88        29.9331   27.4909    2.1364 H         1 UNK         0.0703 
     89 H89        27.1194   27.8502    2.4629 H         1 UNK         0.3081 
     90 H90        25.7553   26.5678    1.0469 H         1 UNK         0.0719 
     91 H91        25.8844   28.9646   -0.8753 H         1 UNK         0.0809 
     92 H92        24.4056   28.2013   -0.2903 H         1 UNK         0.0809 
     93 H93        25.4628   29.0434    0.8284 H         1 UNK         0.0809 
     94 H94        25.9798   26.7215   -1.8606 H         1 UNK         0.2990 
     95 H95        25.6084   24.7559   -3.0131 H         1 UNK         0.0690 
     96 H96        27.7302   23.8902   -4.0278 H         1 UNK         0.0788 
     97 H97        28.4973   23.8683   -2.4394 H         1 UNK         0.0788 
     98 H98        28.0287   25.3959   -3.1724 H         1 UNK         0.0788 
     99 H99        26.7501   22.2116   -2.0317 H         1 UNK         0.2993 
    100 H100       23.6099   20.8321   -1.1327 H         1 UNK         0.0949 
    101 H101       24.1987   19.9958   -3.3662 H         1 UNK         0.0767 
    102 H102       25.9084   19.9833   -2.9759 H         1 UNK         0.0767 
    103 H103       24.8047   18.8889   -2.1446 H         1 UNK         0.0767 
    104 H104       24.9503   20.7803    0.6090 H         1 UNK         0.3013 
    105 H105       31.1167   28.6734    0.7284 H         1 UNK         0.3121 
    106 H106       29.9881   30.6728   -0.7878 H         1 UNK         0.0774 
    107 H107       32.1929   30.8070   -1.9091 H         1 UNK         0.0815 
    108 H108       32.9610   29.9819   -0.5645 H         1 UNK         0.0815 
    109 H109       31.7806   29.1362   -1.5644 H         1 UNK         0.0815 
    110 H110       31.8425   31.2113    2.1503 H         1 UNK         0.2987 
    111 H111       31.7928   34.1758    1.6568 H         1 UNK         0.0949 
    112 H112       34.1115   33.2265    1.8514 H         1 UNK         0.0806 
    113 H113       33.6972   32.5486    3.4273 H         1 UNK         0.0806 
    114 H114       33.7244   34.2883    3.1912 H         1 UNK         0.0806 
    115 H115       29.8891   31.9657    2.9394 H         1 UNK         0.3010 
    116 H116       28.4507   31.6814    4.5603 H         1 UNK         0.0829 
    117 H117       27.7739   34.0567    4.3374 H         1 UNK         0.0813 
    118 H118       27.6540   33.5179    6.0042 H         1 UNK         0.0813 
    119 H119       28.9887   34.5459    5.5150 H         1 UNK         0.0813 
    120 H120       31.1179   33.5298    6.0132 H         1 UNK         0.3038 
    121 H121       31.5212   31.6192    8.2448 H         1 UNK         0.0769 
    122 H122       31.8120   34.0342    8.7236 H         1 UNK         0.0811 
    123 H123       32.9920   34.1869    7.4233 H         1 UNK         0.0811 
    124 H124       33.3608   33.2131    8.8408 H         1 UNK         0.0811 
    125 H125       31.7450   29.8757    6.7253 H         1 UNK         0.3204 
    126 H126       32.8449   28.2651    5.7080 H         1 UNK         0.0748 
    127 H127       34.7654   28.6728    7.2725 H         1 UNK         0.0771 
    128 H128       35.2759   28.0358    5.7248 H         1 UNK         0.0771 
    129 H129       35.4981   29.7458    6.0869 H         1 UNK         0.0771 
    130 H130       35.3402   29.0475    3.9237 H         1 UNK         0.2980 
    131 H131       33.8845   30.2851    1.6616 H         1 UNK         0.0545 
    132 H132       36.8952   31.8999    0.6483 H         1 UNK         0.3459 
    133 H133       35.3326   31.3658    0.0931 H         1 UNK         0.3459 
    134 H134       35.0118   28.6784    0.0979 H         1 UNK         0.0616 
    135 H135       35.6573   27.7859    1.4463 H         1 UNK         0.0616 
    136 H136       34.4041   26.4273    3.0429 H         1 UNK         0.0634 
    137 H137       34.3885   25.3469    1.6666 H         1 UNK         0.0634 
@<TRIPOS>BOND
     1    1    2 1    
     2    1   72 1    
     3    1   73 1    
     4    1   74 1    
     5    2    3 2    
     6    2    4 am   BACKBONE|DICT|INTERRES
     7    4    5 1    
     8    4   75 1    
     9    5    6 1    
    10    5   35 1    
    11    5   76 1    
    12    6    7 1    
    13    6   77 1    
    14    6   78 1    
    15    7    8 1    
    16    8    9 1    
    17    8   79 1    
    18    8   80 1    
    19    9   10 ar   
    20    9   14 ar   
    21   10   11 ar   
    22   10   81 1    
    23   11   12 ar   
    24   11   71 1    
    25   12   13 ar   
    26   12   82 1    
    27   13   14 ar   
    28   13   15 1    
    29   14   83 1    
    30   15   16 1    
    31   15   84 1    
    32   15   85 1    
    33   16   17 1    
    34   17   18 1    
    35   17   86 1    
    36   17   87 1    
    37   18   19 1    
    38   18   37 1    
    39   18   88 1    
    40   19   20 am   BACKBONE|DICT|INTERRES
    41   19   89 1    
    42   20   21 2    
    43   20   22 1    
    44   22   23 1    
    45   22   24 1    
    46   22   90 1    
    47   23   91 1    
    48   23   92 1    
    49   23   93 1    
    50   24   25 am   BACKBONE|DICT|INTERRES
    51   24   94 1    
    52   25   26 2    
    53   25   27 1    
    54   27   28 1    
    55   27   29 1    
    56   27   95 1    
    57   28   96 1    
    58   28   97 1    
    59   28   98 1    
    60   29   30 am   BACKBONE|DICT|INTERRES
    61   29   99 1    
    62   30   31 2    
    63   30   32 1    
    64   32   33 1    
    65   32   34 1    
    66   32  100 1    
    67   33  101 1    
    68   33  102 1    
    69   33  103 1    
    70   34   35 am   BACKBONE|DICT|INTERRES
    71   34  104 1    
    72   35   36 2    
    73   37   38 2    
    74   37   39 am   BACKBONE|DICT|INTERRES
    75   39   40 1    
    76   39  105 1    
    77   40   41 1    
    78   40   42 1    
    79   40  106 1    
    80   41  107 1    
    81   41  108 1    
    82   41  109 1    
    83   42   43 2    
    84   42   44 am   BACKBONE|DICT|INTERRES
    85   44   45 1    
    86   44  110 1    
    87   45   46 1    
    88   45   47 1    
    89   45  111 1    
    90   46  112 1    
    91   46  113 1    
    92   46  114 1    
    93   47   48 2    
    94   47   49 am   BACKBONE|DICT|INTERRES
    95   49   50 1    
    96   49  115 1    
    97   50   51 1    
    98   50   52 1    
    99   50  116 1    
   100   51  117 1    
   101   51  118 1    
   102   51  119 1    
   103   52   53 2    
   104   52   54 am   BACKBONE|DICT|INTERRES
   105   54   55 1    
   106   54  120 1    
   107   55   56 1    
   108   55   57 1    
   109   55  121 1    
   110   56  122 1    
   111   56  123 1    
   112   56  124 1    
   113   57   58 2    
   114   57   59 am   BACKBONE|DICT|INTERRES
   115   59   60 1    
   116   59  125 1    
   117   60   61 1    
   118   60   62 1    
   119   60  126 1    
   120   61  127 1    
   121   61  128 1    
   122   61  129 1    
   123   62   63 2    
   124   62   64 am   BACKBONE|DICT|INTERRES
   125   64   65 1    
   126   64  130 1    
   127   65   66 1    
   128   65   69 1    
   129   65  131 1    
   130   66   67 am   BACKBONE|DICT|INTERRES
   131   66   68 2    
   132   67  132 1    
   133   67  133 1    
   134   69   70 1    
   135   69  134 1    
   136   69  135 1    
   137   70   71 1    
   138   71  136 1    
   139   71  137 1    
@<TRIPOS>SUBSTRUCTURE
     1 UNK         1 GROUP             0       ****    0 ROOT    
