@<TRIPOS>MOLECULE
3R136
137   139    1
SMALL
USER_CHARGES


@<TRIPOS>ATOM
      1 CA         27.9369   20.0232    2.5146 C.3       0 UNK        -0.1979 
      2 C          28.3011   20.2761    1.0590 C.2       0 UNK         0.4864 
      3 O          29.0134   19.4716    0.4566 O.2       0 UNK        -0.5359 
      4 N          27.8202   21.3867    0.4939 N.am      1 UNK        -0.4318 
      5 CA         28.0617   21.8251   -0.8793 C.3       1 UNK         0.0824 
      6 C6         29.5031   22.3635   -1.1045 C.3       12 UNK        -0.0944 
      7 S7         29.9535   23.7611   -0.0164 S.3       12 UNK        -0.2672 
      8 C8         31.1992   22.9748    1.0482 C.3       12 UNK         0.0333 
      9 C9         31.5943   23.9022    2.1836 C.ar      12 UNK        -0.0807 
     10 C10        32.5686   24.8842    1.9844 C.ar      12 UNK        -0.0894 
     11 C11        32.9103   25.7610    3.0181 C.ar      12 UNK        -0.0804 
     12 C12        32.2794   25.6428    4.2599 C.ar      12 UNK        -0.0824 
     13 C13        31.3000   24.6680    4.4672 C.ar      12 UNK        -0.0762 
     14 C14        30.9674   23.7943    3.4277 C.ar      12 UNK        -0.0782 
     15 C15        30.5799   24.5716    5.8030 C.3       12 UNK         0.0230 
     16 S16        28.8206   25.0148    5.6449 S.3       12 UNK        -0.2608 
     17 C17        28.8924   26.8171    5.3519 C.3       12 UNK        -0.0989 
     18 CA         28.9250   27.2206    3.8494 C.3       5 UNK         0.0716 
     19 N          27.9169   26.5611    3.0090 N.am      5 UNK        -0.4135 
     20 C          26.5815   26.6013    3.1226 C.2       4 UNK         0.5031 
     21 O          25.9892   27.1567    4.0508 O.2       4 UNK        -0.5229 
     22 CA         25.7828   25.9785    1.9597 C.3       4 UNK         0.0329 
     23 CB         24.3280   26.4891    1.9006 C.3       4 UNK        -0.2001 
     24 N          26.4315   26.1513    0.6516 N.am      4 UNK        -0.4303 
     25 C          26.8313   27.3046    0.0848 C.2       3 UNK         0.5044 
     26 O          26.7182   28.4095    0.6195 O.2       3 UNK        -0.5152 
     27 CA         27.5133   27.2182   -1.2946 C.3       3 UNK         0.0319 
     28 CB         29.0316   27.4257   -1.1494 C.3       3 UNK        -0.2001 
     29 N          27.2637   25.9560   -1.9961 N.am      3 UNK        -0.4354 
     30 C          26.0886   25.6083   -2.5430 C.2       2 UNK         0.4964 
     31 O          25.1137   26.3586   -2.5969 O.2       2 UNK        -0.5047 
     32 CA         25.9622   24.1790   -3.1074 C.3       2 UNK         0.0288 
     33 CB         26.1108   24.1930   -4.6379 C.3       2 UNK        -0.2113 
     34 N          26.9066   23.2057   -2.5429 N.am      2 UNK        -0.4145 
     35 C          26.9840   22.8591   -1.2496 C.2       1 UNK         0.5006 
     36 O          26.2741   23.3501   -0.3650 O.2       1 UNK        -0.5103 
     37 C          28.9105   28.7584    3.6954 C.2       5 UNK         0.5055 
     38 O          29.9637   29.3557    3.4666 O.2       5 UNK        -0.5220 
     39 N          27.7263   29.3681    3.8335 N.am      6 UNK        -0.4450 
     40 CA         27.4701   30.8075    3.8836 C.3       6 UNK         0.0367 
     41 CB         25.9649   31.0469    4.0792 C.3       6 UNK        -0.1929 
     42 C          27.9858   31.6007    2.6744 C.2       6 UNK         0.5070 
     43 O          28.5987   32.6501    2.8715 O.2       6 UNK        -0.5237 
     44 N          27.7752   31.0920    1.4507 N.am      7 UNK        -0.4739 
     45 CA         28.2201   31.7632    0.2195 C.3       7 UNK         0.0276 
     46 CB         27.4882   31.1747   -0.9955 C.3       7 UNK        -0.1927 
     47 C          29.7466   31.7219    0.0163 C.2       7 UNK         0.5013 
     48 O          30.2706   32.5153   -0.7657 O.2       7 UNK        -0.5193 
     49 N          30.4287   30.8257    0.7408 N.am      8 UNK        -0.4253 
     50 CA         31.8855   30.7262    0.8209 C.3       8 UNK         0.0242 
     51 CB         32.2739   29.2424    0.7028 C.3       8 UNK        -0.2000 
     52 C          32.4299   31.3553    2.1205 C.2       8 UNK         0.4948 
     53 O          33.5982   31.1379    2.4475 O.2       8 UNK        -0.5275 
     54 N          31.5808   32.0901    2.8624 N.am      9 UNK        -0.4246 
     55 CA         31.8522   32.7498    4.1485 C.3       9 UNK         0.0261 
     56 CB         32.8091   33.9438    3.9469 C.3       9 UNK        -0.1959 
     57 C          32.3365   31.7837    5.2497 C.2       9 UNK         0.5033 
     58 O          33.1034   32.1876    6.1257 O.2       9 UNK        -0.5390 
     59 N          31.9147   30.5134    5.1564 N.am      10 UNK        -0.4215 
     60 CA         32.3267   29.3609    5.9640 C.3       10 UNK         0.0240 
     61 CB         31.8735   29.5226    7.4298 C.3       10 UNK        -0.1982 
     62 C          33.8194   28.9797    5.8457 C.2       10 UNK         0.4970 
     63 O          34.2566   28.1126    6.6026 O.2       10 UNK        -0.4916 
     64 N          34.5515   29.5893    4.8962 N.am      11 UNK        -0.4279 
     65 CA         35.9722   29.3721    4.5568 C.3       11 UNK         0.1003 
     66 C          36.9805   29.3032    5.7457 C.2       11 UNK         0.5709 
     67 N          36.7402   30.0241    6.8347 N.am      11 UNK        -0.7358 
     68 O          38.0066   28.6300    5.6757 O.2       11 UNK        -0.4999 
     69 C69        36.1873   28.3109    3.4338 C.3       12 UNK        -0.0954 
     70 S70        35.4424   26.6713    3.7329 S.3       12 UNK        -0.2268 
     71 C71        33.9106   26.8776    2.7758 C.3       12 UNK         0.0203 
     72 H72        28.8402   19.9553    3.1202 H         1 UNK         0.0888 
     73 H73        27.3149   20.8197    2.9231 H         1 UNK         0.0888 
     74 H74        27.3915   19.0845    2.6079 H         1 UNK         0.0888 
     75 H75        27.1993   22.0051    1.0021 H         1 UNK         0.3017 
     76 H76        27.9056   20.9645   -1.5336 H         1 UNK         0.0873 
     77 H77        29.6395   22.6821   -2.1391 H         1 UNK         0.0745 
     78 H78        30.2194   21.5525   -0.9658 H         1 UNK         0.0745 
     79 H79        32.0755   22.7142    0.4527 H         1 UNK         0.0705 
     80 H80        30.8038   22.0390    1.4462 H         1 UNK         0.0705 
     81 H81        33.0411   24.9789    1.0161 H         1 UNK         0.1334 
     82 H82        32.5438   26.3202    5.0592 H         1 UNK         0.1417 
     83 H83        30.2013   23.0466    3.5826 H         1 UNK         0.1562 
     84 H84        31.0516   25.2054    6.5557 H         1 UNK         0.0748 
     85 H85        30.6539   23.5483    6.1740 H         1 UNK         0.0748 
     86 H86        29.7586   27.2248    5.8751 H         1 UNK         0.0940 
     87 H87        28.0214   27.2537    5.8442 H         1 UNK         0.0940 
     88 H88        29.8808   26.8923    3.4413 H         1 UNK         0.0703 
     89 H89        28.2894   26.0880    2.1987 H         1 UNK         0.3081 
     90 H90        25.7530   24.9046    2.1497 H         1 UNK         0.0719 
     91 H91        24.2863   27.5696    1.7582 H         1 UNK         0.0809 
     92 H92        23.7778   26.0217    1.0839 H         1 UNK         0.0809 
     93 H93        23.7931   26.2604    2.8232 H         1 UNK         0.0809 
     94 H94        26.5588   25.2916    0.1268 H         1 UNK         0.2990 
     95 H95        27.1115   28.0276   -1.9070 H         1 UNK         0.0690 
     96 H96        29.5234   27.4554   -2.1217 H         1 UNK         0.0788 
     97 H97        29.4953   26.6330   -0.5626 H         1 UNK         0.0788 
     98 H98        29.2570   28.3663   -0.6460 H         1 UNK         0.0788 
     99 H99        28.0171   25.2837   -2.0049 H         1 UNK         0.2993 
    100 H100       24.9552   23.8327   -2.8646 H         1 UNK         0.0949 
    101 H101       25.9180   23.2088   -5.0655 H         1 UNK         0.0767 
    102 H102       25.4010   24.8852   -5.0936 H         1 UNK         0.0767 
    103 H103       27.1108   24.5038   -4.9435 H         1 UNK         0.0767 
    104 H104       27.5303   22.7599   -3.2008 H         1 UNK         0.3013 
    105 H105       26.9245   28.7592    3.9852 H         1 UNK         0.3121 
    106 H106       27.9905   31.1900    4.7641 H         1 UNK         0.0774 
    107 H107       25.7413   32.1133    4.1357 H         1 UNK         0.0815 
    108 H108       25.3813   30.6329    3.2557 H         1 UNK         0.0815 
    109 H109       25.6076   30.5929    5.0037 H         1 UNK         0.0815 
    110 H110       27.2962   30.2005    1.3465 H         1 UNK         0.2987 
    111 H111       27.9388   32.8162    0.2943 H         1 UNK         0.0949 
    112 H112       27.7980   30.1513   -1.1927 H         1 UNK         0.0806 
    113 H113       26.4074   31.1795   -0.8538 H         1 UNK         0.0806 
    114 H114       27.7013   31.7541   -1.8948 H         1 UNK         0.0806 
    115 H115       29.9115   30.2437    1.3888 H         1 UNK         0.3010 
    116 H116       32.3483   31.2650   -0.0083 H         1 UNK         0.0829 
    117 H117       31.9388   28.8214   -0.2452 H         1 UNK         0.0813 
    118 H118       33.3560   29.1139    0.7455 H         1 UNK         0.0813 
    119 H119       31.8338   28.6477    1.5036 H         1 UNK         0.0813 
    120 H120       30.6270   32.1928    2.5331 H         1 UNK         0.3038 
    121 H121       30.8963   33.1451    4.4952 H         1 UNK         0.0769 
    122 H122       32.9143   34.5227    4.8653 H         1 UNK         0.0811 
    123 H123       32.4389   34.6232    3.1793 H         1 UNK         0.0811 
    124 H124       33.8067   33.6161    3.6527 H         1 UNK         0.0811 
    125 H125       31.2721   30.2833    4.3990 H         1 UNK         0.3204 
    126 H126       31.7802   28.5153    5.5475 H         1 UNK         0.0748 
    127 H127       32.0366   28.6046    7.9957 H         1 UNK         0.0771 
    128 H128       32.4204   30.3175    7.9375 H         1 UNK         0.0771 
    129 H129       30.8100   29.7534    7.4921 H         1 UNK         0.0771 
    130 H130       34.0869   30.2711    4.3074 H         1 UNK         0.2980 
    131 H131       36.2542   30.3162    4.0892 H         1 UNK         0.0545 
    132 H132       35.9024   30.5806    6.9026 H         1 UNK         0.3459 
    133 H133       37.3919   29.9926    7.6024 H         1 UNK         0.3459 
    134 H134       35.7834   28.7051    2.4999 H         1 UNK         0.0616 
    135 H135       37.2501   28.1681    3.2325 H         1 UNK         0.0616 
    136 H136       34.1646   26.9465    1.7170 H         1 UNK         0.0634 
    137 H137       33.4429   27.8245    3.0448 H         1 UNK         0.0634 
@<TRIPOS>BOND
     1    1    2 1    
     2    1   72 1    
     3    1   73 1    
     4    1   74 1    
     5    2    3 2    
     6    2    4 am   BACKBONE|DICT|INTERRES
     7    4    5 1    
     8    4   75 1    
     9    5    6 1    
    10    5   35 1    
    11    5   76 1    
    12    6    7 1    
    13    6   77 1    
    14    6   78 1    
    15    7    8 1    
    16    8    9 1    
    17    8   79 1    
    18    8   80 1    
    19    9   10 ar   
    20    9   14 ar   
    21   10   11 ar   
    22   10   81 1    
    23   11   12 ar   
    24   11   71 1    
    25   12   13 ar   
    26   12   82 1    
    27   13   14 ar   
    28   13   15 1    
    29   14   83 1    
    30   15   16 1    
    31   15   84 1    
    32   15   85 1    
    33   16   17 1    
    34   17   18 1    
    35   17   86 1    
    36   17   87 1    
    37   18   19 1    
    38   18   37 1    
    39   18   88 1    
    40   19   20 am   BACKBONE|DICT|INTERRES
    41   19   89 1    
    42   20   21 2    
    43   20   22 1    
    44   22   23 1    
    45   22   24 1    
    46   22   90 1    
    47   23   91 1    
    48   23   92 1    
    49   23   93 1    
    50   24   25 am   BACKBONE|DICT|INTERRES
    51   24   94 1    
    52   25   26 2    
    53   25   27 1    
    54   27   28 1    
    55   27   29 1    
    56   27   95 1    
    57   28   96 1    
    58   28   97 1    
    59   28   98 1    
    60   29   30 am   BACKBONE|DICT|INTERRES
    61   29   99 1    
    62   30   31 2    
    63   30   32 1    
    64   32   33 1    
    65   32   34 1    
    66   32  100 1    
    67   33  101 1    
    68   33  102 1    
    69   33  103 1    
    70   34   35 am   BACKBONE|DICT|INTERRES
    71   34  104 1    
    72   35   36 2    
    73   37   38 2    
    74   37   39 am   BACKBONE|DICT|INTERRES
    75   39   40 1    
    76   39  105 1    
    77   40   41 1    
    78   40   42 1    
    79   40  106 1    
    80   41  107 1    
    81   41  108 1    
    82   41  109 1    
    83   42   43 2    
    84   42   44 am   BACKBONE|DICT|INTERRES
    85   44   45 1    
    86   44  110 1    
    87   45   46 1    
    88   45   47 1    
    89   45  111 1    
    90   46  112 1    
    91   46  113 1    
    92   46  114 1    
    93   47   48 2    
    94   47   49 am   BACKBONE|DICT|INTERRES
    95   49   50 1    
    96   49  115 1    
    97   50   51 1    
    98   50   52 1    
    99   50  116 1    
   100   51  117 1    
   101   51  118 1    
   102   51  119 1    
   103   52   53 2    
   104   52   54 am   BACKBONE|DICT|INTERRES
   105   54   55 1    
   106   54  120 1    
   107   55   56 1    
   108   55   57 1    
   109   55  121 1    
   110   56  122 1    
   111   56  123 1    
   112   56  124 1    
   113   57   58 2    
   114   57   59 am   BACKBONE|DICT|INTERRES
   115   59   60 1    
   116   59  125 1    
   117   60   61 1    
   118   60   62 1    
   119   60  126 1    
   120   61  127 1    
   121   61  128 1    
   122   61  129 1    
   123   62   63 2    
   124   62   64 am   BACKBONE|DICT|INTERRES
   125   64   65 1    
   126   64  130 1    
   127   65   66 1    
   128   65   69 1    
   129   65  131 1    
   130   66   67 am   BACKBONE|DICT|INTERRES
   131   66   68 2    
   132   67  132 1    
   133   67  133 1    
   134   69   70 1    
   135   69  134 1    
   136   69  135 1    
   137   70   71 1    
   138   71  136 1    
   139   71  137 1    
@<TRIPOS>SUBSTRUCTURE
     1 UNK         1 GROUP             0       ****    0 ROOT    
