@<TRIPOS>MOLECULE
3R136
137   139    1
SMALL
USER_CHARGES


@<TRIPOS>ATOM
      1 CA         26.6231   19.3250    2.2425 C.3       0 UNK        -0.1979 
      2 C          26.9861   20.5938    1.4838 C.2       0 UNK         0.4864 
      3 O          26.4266   21.6512    1.7766 O.2       0 UNK        -0.5359 
      4 N          27.9237   20.4827    0.5301 N.am      1 UNK        -0.4318 
      5 CA         28.4100   21.5264   -0.3844 C.3       1 UNK         0.0824 
      6 C6         28.8379   22.8336    0.3418 C.3       12 UNK        -0.0944 
      7 S7         30.0358   23.8238   -0.6114 S.3       12 UNK        -0.2672 
      8 C8         30.1091   25.3365    0.3929 C.3       12 UNK         0.0333 
      9 C9         30.9575   25.1525    1.6415 C.ar      12 UNK        -0.0807 
     10 C10        32.3440   25.3155    1.5682 C.ar      12 UNK        -0.0894 
     11 C11        33.1351   25.1953    2.7136 C.ar      12 UNK        -0.0804 
     12 C12        32.5287   24.9075    3.9394 C.ar      12 UNK        -0.0824 
     13 C13        31.1430   24.7450    4.0276 C.ar      12 UNK        -0.0762 
     14 C14        30.3621   24.8566    2.8723 C.ar      12 UNK        -0.0782 
     15 C15        30.5025   24.4528    5.3768 C.3       12 UNK         0.0230 
     16 S16        30.0759   25.9888    6.2634 S.3       12 UNK        -0.2608 
     17 C17        28.4088   26.3513    5.6177 C.3       12 UNK        -0.0989 
     18 CA         28.4190   27.3395    4.4213 C.3       5 UNK         0.0716 
     19 N          27.3763   26.9931    3.4460 N.am      5 UNK        -0.4135 
     20 C          27.3033   27.4845    2.2046 C.2       4 UNK         0.5031 
     21 O          28.0913   28.3133    1.7437 O.2       4 UNK        -0.5229 
     22 CA         26.1325   27.0074    1.3455 C.3       4 UNK         0.0329 
     23 CB         24.9139   27.9303    1.5217 C.3       4 UNK        -0.2001 
     24 N          26.5643   27.0181   -0.0473 N.am      4 UNK        -0.4303 
     25 C          26.1618   26.1600   -0.9898 C.2       3 UNK         0.5044 
     26 O          25.3049   25.2961   -0.7960 O.2       3 UNK        -0.5152 
     27 CA         26.8195   26.2709   -2.3786 C.3       3 UNK         0.0319 
     28 CB         28.0144   27.2468   -2.4392 C.3       3 UNK        -0.2001 
     29 N          27.2691   24.9436   -2.7953 N.am      3 UNK        -0.4354 
     30 C          26.6226   24.1316   -3.6439 C.2       2 UNK         0.4964 
     31 O          25.6077   24.4485   -4.2658 O.2       2 UNK        -0.5047 
     32 CA         27.2119   22.7224   -3.8413 C.3       2 UNK         0.0288 
     33 CB         28.1205   22.6887   -5.0815 C.3       2 UNK        -0.2113 
     34 N          27.9727   22.2644   -2.6750 N.am      2 UNK        -0.4145 
     35 C          27.4247   21.7931   -1.5461 C.2       1 UNK         0.5006 
     36 O          26.2166   21.5794   -1.4177 O.2       1 UNK        -0.5103 
     37 C          28.3462   28.8161    4.8740 C.2       5 UNK         0.5055 
     38 O          29.3760   29.4087    5.1936 O.2       5 UNK        -0.5220 
     39 N          27.1354   29.3950    4.8596 N.am      6 UNK        -0.4450 
     40 CA         26.8947   30.8182    5.1092 C.3       6 UNK         0.0367 
     41 CB         25.3994   31.0400    5.3883 C.3       6 UNK        -0.1929 
     42 C          27.3632   31.7165    3.9495 C.2       6 UNK         0.5070 
     43 O          27.7598   32.8553    4.1965 O.2       6 UNK        -0.5237 
     44 N          27.3080   31.1992    2.7129 N.am      7 UNK        -0.4739 
     45 CA         27.8017   31.8797    1.5140 C.3       7 UNK         0.0276 
     46 CB         27.1116   31.3115    0.2622 C.3       7 UNK        -0.1927 
     47 C          29.3283   31.7612    1.4109 C.2       7 UNK         0.5013 
     48 O          30.0066   32.7680    1.2034 O.2       7 UNK        -0.5193 
     49 N          29.8506   30.5453    1.6197 N.am      8 UNK        -0.4253 
     50 CA         31.2783   30.2227    1.6732 C.3       8 UNK         0.0242 
     51 CB         31.4561   28.7265    1.3604 C.3       8 UNK        -0.2000 
     52 C          31.9157   30.6207    3.0203 C.2       8 UNK         0.4948 
     53 O          32.6073   29.8118    3.6395 O.2       8 UNK        -0.5275 
     54 N          31.6948   31.8731    3.4454 N.am      9 UNK        -0.4246 
     55 CA         32.1225   32.4369    4.7319 C.3       9 UNK         0.0261 
     56 CB         31.5940   33.8747    4.8526 C.3       9 UNK        -0.1959 
     57 C          33.6420   32.3942    4.9787 C.2       9 UNK         0.5033 
     58 O          34.0639   32.3440    6.1352 O.2       9 UNK        -0.5390 
     59 N          34.4335   32.3632    3.8966 N.am      10 UNK        -0.4215 
     60 CA         35.8852   32.1625    3.9063 C.3       10 UNK         0.0240 
     61 CB         36.4217   32.3034    2.4724 C.3       10 UNK        -0.1982 
     62 C          36.3315   30.8188    4.5175 C.2       10 UNK         0.4970 
     63 O          37.4639   30.7346    4.9948 O.2       10 UNK        -0.4916 
     64 N          35.4496   29.8088    4.5142 N.am      11 UNK        -0.4279 
     65 CA         35.6568   28.5247    5.1997 C.3       11 UNK         0.1003 
     66 C          35.4703   28.5963    6.7452 C.2       11 UNK         0.5709 
     67 N          34.9985   29.6969    7.3225 N.am      11 UNK        -0.7358 
     68 O          35.7772   27.6315    7.4417 O.2       11 UNK        -0.4999 
     69 C69        34.7864   27.3973    4.5857 C.3       12 UNK        -0.0954 
     70 S70        35.1248   27.1233    2.8134 S.3       12 UNK        -0.2268 
     71 C71        34.6434   25.3781    2.6243 C.3       12 UNK         0.0203 
     72 H72        27.1986   18.4646    1.9015 H         1 UNK         0.0888 
     73 H73        26.8117   19.4578    3.3075 H         1 UNK         0.0888 
     74 H74        25.5654   19.0991    2.1091 H         1 UNK         0.0888 
     75 H75        28.3128   19.5665    0.3547 H         1 UNK         0.3017 
     76 H76        29.3046   21.0872   -0.8296 H         1 UNK         0.0873 
     77 H77        27.9701   23.4504    0.5844 H         1 UNK         0.0745 
     78 H78        29.3119   22.5874    1.2932 H         1 UNK         0.0745 
     79 H79        30.5328   26.1357   -0.2160 H         1 UNK         0.0705 
     80 H80        29.1007   25.6570    0.6541 H         1 UNK         0.0705 
     81 H81        32.8071   25.5484    0.6190 H         1 UNK         0.1334 
     82 H82        33.1350   24.8213    4.8305 H         1 UNK         0.1417 
     83 H83        29.2901   24.7316    2.9349 H         1 UNK         0.1562 
     84 H84        31.1977   23.8813    5.9938 H         1 UNK         0.0748 
     85 H85        29.6234   23.8181    5.2575 H         1 UNK         0.0748 
     86 H86        27.7902   26.7232    6.4373 H         1 UNK         0.0940 
     87 H87        27.9512   25.4030    5.3328 H         1 UNK         0.0940 
     88 H88        29.3705   27.2379    3.8953 H         1 UNK         0.0703 
     89 H89        26.6744   26.3340    3.7513 H         1 UNK         0.3081 
     90 H90        25.8719   25.9895    1.6448 H         1 UNK         0.0719 
     91 H91        25.1399   28.9584    1.2357 H         1 UNK         0.0809 
     92 H92        24.0747   27.5939    0.9125 H         1 UNK         0.0809 
     93 H93        24.5738   27.9436    2.5578 H         1 UNK         0.0809 
     94 H94        27.3054   27.6771   -0.2492 H         1 UNK         0.2990 
     95 H95        26.0528   26.6415   -3.0620 H         1 UNK         0.0690 
     96 H96        28.4431   27.2722   -3.4414 H         1 UNK         0.0788 
     97 H97        28.8117   26.9663   -1.7512 H         1 UNK         0.0788 
     98 H98        27.7090   28.2674   -2.2041 H         1 UNK         0.0788 
     99 H99        28.0738   24.5751   -2.3090 H         1 UNK         0.2993 
    100 H100       26.3779   22.0369   -4.0090 H         1 UNK         0.0949 
    101 H101       27.5745   23.0013   -5.9728 H         1 UNK         0.0767 
    102 H102       28.9778   23.3546   -4.9742 H         1 UNK         0.0767 
    103 H103       28.4968   21.6830   -5.2702 H         1 UNK         0.0767 
    104 H104       28.9740   22.4006   -2.7053 H         1 UNK         0.3013 
    105 H105       26.3344   28.8330    4.6133 H         1 UNK         0.3121 
    106 H106       27.4553   31.1103    6.0001 H         1 UNK         0.0774 
    107 H107       25.1959   32.0901    5.6031 H         1 UNK         0.0815 
    108 H108       24.7806   30.7570    4.5357 H         1 UNK         0.0815 
    109 H109       25.0666   30.4649    6.2525 H         1 UNK         0.0815 
    110 H110       27.0193   30.2384    2.6015 H         1 UNK         0.2987 
    111 H111       27.5521   32.9412    1.5824 H         1 UNK         0.0949 
    112 H112       27.3265   30.2531    0.1166 H         1 UNK         0.0806 
    113 H113       26.0294   31.4284    0.3198 H         1 UNK         0.0806 
    114 H114       27.4454   31.8352   -0.6345 H         1 UNK         0.0806 
    115 H115       29.2124   29.7681    1.7786 H         1 UNK         0.3010 
    116 H116       31.7936   30.7889    0.8947 H         1 UNK         0.0829 
    117 H117       31.0269   28.4706    0.3922 H         1 UNK         0.0813 
    118 H118       32.5114   28.4514    1.3319 H         1 UNK         0.0813 
    119 H119       30.9785   28.1016    2.1162 H         1 UNK         0.0813 
    120 H120       31.1268   32.4672    2.8495 H         1 UNK         0.3038 
    121 H121       31.6553   31.8337    5.5132 H         1 UNK         0.0769 
    122 H122       31.9965   34.5199    4.0708 H         1 UNK         0.0811 
    123 H123       31.8693   34.3132    5.8130 H         1 UNK         0.0811 
    124 H124       30.5058   33.9033    4.7853 H         1 UNK         0.0811 
    125 H125       33.9882   32.4067    2.9918 H         1 UNK         0.3204 
    126 H126       36.3212   32.9559    4.5169 H         1 UNK         0.0748 
    127 H127       36.1912   33.2841    2.0554 H         1 UNK         0.0771 
    128 H128       37.5067   32.1911    2.4488 H         1 UNK         0.0771 
    129 H129       36.0016   31.5466    1.8085 H         1 UNK         0.0771 
    130 H130       34.5240   29.9427    4.1173 H         1 UNK         0.2980 
    131 H131       36.6990   28.2380    5.0477 H         1 UNK         0.0545 
    132 H132       34.7438   30.5121    6.7767 H         1 UNK         0.3459 
    133 H133       34.8952   29.7164    8.3242 H         1 UNK         0.3459 
    134 H134       33.7246   27.6184    4.7072 H         1 UNK         0.0616 
    135 H135       34.9670   26.4595    5.1135 H         1 UNK         0.0616 
    136 H136       35.0002   25.0208    1.6571 H         1 UNK         0.0634 
    137 H137       35.1499   24.7714    3.3765 H         1 UNK         0.0634 
@<TRIPOS>BOND
     1    1    2 1    
     2    1   72 1    
     3    1   73 1    
     4    1   74 1    
     5    2    3 2    
     6    2    4 am   BACKBONE|DICT|INTERRES
     7    4    5 1    
     8    4   75 1    
     9    5    6 1    
    10    5   35 1    
    11    5   76 1    
    12    6    7 1    
    13    6   77 1    
    14    6   78 1    
    15    7    8 1    
    16    8    9 1    
    17    8   79 1    
    18    8   80 1    
    19    9   10 ar   
    20    9   14 ar   
    21   10   11 ar   
    22   10   81 1    
    23   11   12 ar   
    24   11   71 1    
    25   12   13 ar   
    26   12   82 1    
    27   13   14 ar   
    28   13   15 1    
    29   14   83 1    
    30   15   16 1    
    31   15   84 1    
    32   15   85 1    
    33   16   17 1    
    34   17   18 1    
    35   17   86 1    
    36   17   87 1    
    37   18   19 1    
    38   18   37 1    
    39   18   88 1    
    40   19   20 am   BACKBONE|DICT|INTERRES
    41   19   89 1    
    42   20   21 2    
    43   20   22 1    
    44   22   23 1    
    45   22   24 1    
    46   22   90 1    
    47   23   91 1    
    48   23   92 1    
    49   23   93 1    
    50   24   25 am   BACKBONE|DICT|INTERRES
    51   24   94 1    
    52   25   26 2    
    53   25   27 1    
    54   27   28 1    
    55   27   29 1    
    56   27   95 1    
    57   28   96 1    
    58   28   97 1    
    59   28   98 1    
    60   29   30 am   BACKBONE|DICT|INTERRES
    61   29   99 1    
    62   30   31 2    
    63   30   32 1    
    64   32   33 1    
    65   32   34 1    
    66   32  100 1    
    67   33  101 1    
    68   33  102 1    
    69   33  103 1    
    70   34   35 am   BACKBONE|DICT|INTERRES
    71   34  104 1    
    72   35   36 2    
    73   37   38 2    
    74   37   39 am   BACKBONE|DICT|INTERRES
    75   39   40 1    
    76   39  105 1    
    77   40   41 1    
    78   40   42 1    
    79   40  106 1    
    80   41  107 1    
    81   41  108 1    
    82   41  109 1    
    83   42   43 2    
    84   42   44 am   BACKBONE|DICT|INTERRES
    85   44   45 1    
    86   44  110 1    
    87   45   46 1    
    88   45   47 1    
    89   45  111 1    
    90   46  112 1    
    91   46  113 1    
    92   46  114 1    
    93   47   48 2    
    94   47   49 am   BACKBONE|DICT|INTERRES
    95   49   50 1    
    96   49  115 1    
    97   50   51 1    
    98   50   52 1    
    99   50  116 1    
   100   51  117 1    
   101   51  118 1    
   102   51  119 1    
   103   52   53 2    
   104   52   54 am   BACKBONE|DICT|INTERRES
   105   54   55 1    
   106   54  120 1    
   107   55   56 1    
   108   55   57 1    
   109   55  121 1    
   110   56  122 1    
   111   56  123 1    
   112   56  124 1    
   113   57   58 2    
   114   57   59 am   BACKBONE|DICT|INTERRES
   115   59   60 1    
   116   59  125 1    
   117   60   61 1    
   118   60   62 1    
   119   60  126 1    
   120   61  127 1    
   121   61  128 1    
   122   61  129 1    
   123   62   63 2    
   124   62   64 am   BACKBONE|DICT|INTERRES
   125   64   65 1    
   126   64  130 1    
   127   65   66 1    
   128   65   69 1    
   129   65  131 1    
   130   66   67 am   BACKBONE|DICT|INTERRES
   131   66   68 2    
   132   67  132 1    
   133   67  133 1    
   134   69   70 1    
   135   69  134 1    
   136   69  135 1    
   137   70   71 1    
   138   71  136 1    
   139   71  137 1    
@<TRIPOS>SUBSTRUCTURE
     1 UNK         1 GROUP             0       ****    0 ROOT    
