@<TRIPOS>MOLECULE
3R136
137   139    1
SMALL
USER_CHARGES


@<TRIPOS>ATOM
      1 CA         27.4062   20.1634    5.7353 C.3       0 UNK        -0.1979 
      2 C          27.2574   20.6466    4.3000 C.2       0 UNK         0.4864 
      3 O          26.2863   20.2872    3.6316 O.2       0 UNK        -0.5359 
      4 N          28.2160   21.4492    3.8203 N.am      1 UNK        -0.4318 
      5 CA         28.2151   22.0485    2.4811 C.3       1 UNK         0.0824 
      6 C6         29.6127   22.5831    2.0901 C.3       12 UNK        -0.0944 
      7 S7         30.8260   21.2310    1.9465 S.3       12 UNK        -0.2672 
      8 C8         32.3843   22.1087    2.3118 C.3       12 UNK         0.0333 
      9 C9         32.8319   23.1332    1.2659 C.ar      12 UNK        -0.0807 
     10 C10        33.7958   24.0761    1.6361 C.ar      12 UNK        -0.0894 
     11 C11        34.2700   25.0161    0.7172 C.ar      12 UNK        -0.0804 
     12 C12        33.7750   25.0100   -0.5887 C.ar      12 UNK        -0.0824 
     13 C13        32.8127   24.0750   -0.9804 C.ar      12 UNK        -0.0762 
     14 C14        32.3500   23.1379   -0.0514 C.ar      12 UNK        -0.0782 
     15 C15        32.3113   24.0386   -2.4194 C.3       12 UNK         0.0230 
     16 S16        31.6910   25.6487   -3.0043 S.3       12 UNK        -0.2608 
     17 C17        30.1260   25.8122   -2.0844 C.3       12 UNK        -0.0989 
     18 CA         29.8090   27.2961   -1.7559 C.3       5 UNK         0.0716 
     19 N          28.3690   27.5567   -1.7523 N.am      5 UNK        -0.4135 
     20 C          27.7377   28.4029   -2.5804 C.2       4 UNK         0.5031 
     21 O          28.3008   29.0501   -3.4645 O.2       4 UNK        -0.5229 
     22 CA         26.2121   28.5585   -2.4173 C.3       4 UNK         0.0329 
     23 CB         25.4728   27.7222   -3.4748 C.3       4 UNK        -0.2001 
     24 N          25.7263   28.1818   -1.0899 N.am      4 UNK        -0.4303 
     25 C          25.9956   28.8462    0.0421 C.2       3 UNK         0.5044 
     26 O          26.5705   29.9326    0.0706 O.2       3 UNK        -0.5152 
     27 CA         25.5809   28.1773    1.3664 C.3       3 UNK         0.0319 
     28 CB         24.3567   28.8868    1.9666 C.3       3 UNK        -0.2001 
     29 N          25.3035   26.7382    1.2662 N.am      3 UNK        -0.4354 
     30 C          26.1823   25.7921    0.9051 C.2       2 UNK         0.4964 
     31 O          27.3457   26.0197    0.5575 O.2       2 UNK        -0.5047 
     32 CA         25.6271   24.3625    0.8244 C.3       2 UNK         0.0288 
     33 CB         25.0881   24.0887   -0.5898 C.3       2 UNK        -0.2113 
     34 N          26.6368   23.3560    1.1497 N.am      2 UNK        -0.4145 
     35 C          27.1564   23.1635    2.3693 C.2       1 UNK         0.5006 
     36 O          26.8423   23.8236    3.3643 O.2       1 UNK        -0.5103 
     37 C          30.4237   27.7567   -0.4223 C.2       5 UNK         0.5055 
     38 O          31.3151   28.6072   -0.4264 O.2       5 UNK        -0.5220 
     39 N          29.9095   27.2315    0.6979 N.am      6 UNK        -0.4450 
     40 CA         30.3338   27.5787    2.0531 C.3       6 UNK         0.0367 
     41 CB         30.2663   26.3174    2.9323 C.3       6 UNK        -0.1929 
     42 C          29.4540   28.7216    2.5806 C.2       6 UNK         0.5070 
     43 O          28.5957   28.5041    3.4384 O.2       6 UNK        -0.5237 
     44 N          29.6389   29.9133    2.0007 N.am      7 UNK        -0.4739 
     45 CA         28.8552   31.1219    2.2604 C.3       7 UNK         0.0276 
     46 CB         29.1073   32.1359    1.1290 C.3       7 UNK        -0.1927 
     47 C          29.1116   31.7207    3.6564 C.2       7 UNK         0.5013 
     48 O          29.8183   32.7249    3.7760 O.2       7 UNK        -0.5193 
     49 N          28.5123   31.0939    4.6782 N.am      8 UNK        -0.4253 
     50 CA         28.4635   31.4930    6.0888 C.3       8 UNK         0.0242 
     51 CB         27.6070   32.7670    6.2663 C.3       8 UNK        -0.2000 
     52 C          29.8623   31.6073    6.7176 C.2       8 UNK         0.4948 
     53 O          30.3754   30.6119    7.2291 O.2       8 UNK        -0.5275 
     54 N          30.4476   32.8117    6.6719 N.am      9 UNK        -0.4246 
     55 CA         31.8147   33.0928    7.1098 C.3       9 UNK         0.0261 
     56 CB         32.0092   34.6130    7.2288 C.3       9 UNK        -0.1959 
     57 C          32.8757   32.4835    6.1768 C.2       9 UNK         0.5033 
     58 O          33.9604   32.1391    6.6508 O.2       9 UNK        -0.5390 
     59 N          32.5573   32.3485    4.8801 N.am      10 UNK        -0.4215 
     60 CA         33.4097   31.6706    3.9039 C.3       10 UNK         0.0240 
     61 CB         32.9317   31.9890    2.4796 C.3       10 UNK        -0.1982 
     62 C          33.3952   30.1565    4.1560 C.2       10 UNK         0.4970 
     63 O          32.3178   29.5824    4.3247 O.2       10 UNK        -0.4916 
     64 N          34.5897   29.5542    4.1739 N.am      11 UNK        -0.4279 
     65 CA         34.8327   28.1272    4.4532 C.3       11 UNK         0.1003 
     66 C          34.5662   27.7046    5.9316 C.2       11 UNK         0.5709 
     67 N          34.4056   28.6308    6.8705 N.am      11 UNK        -0.7358 
     68 O          34.5436   26.5165    6.2449 O.2       11 UNK        -0.4999 
     69 C69        34.1542   27.1731    3.4268 C.3       12 UNK        -0.0954 
     70 S70        34.5813   27.5795    1.6978 S.3       12 UNK        -0.2268 
     71 C71        35.3316   26.0279    1.1208 C.3       12 UNK         0.0203 
     72 H72        28.3153   20.5433    6.2013 H         1 UNK         0.0888 
     73 H73        26.5562   20.4933    6.3320 H         1 UNK         0.0888 
     74 H74        27.4410   19.0746    5.7632 H         1 UNK         0.0888 
     75 H75        28.9832   21.7199    4.4177 H         1 UNK         0.3017 
     76 H76        27.9397   21.2646    1.7714 H         1 UNK         0.0873 
     77 H77        29.9613   23.3101    2.8255 H         1 UNK         0.0745 
     78 H78        29.5808   23.1055    1.1317 H         1 UNK         0.0745 
     79 H79        32.2877   22.5931    3.2849 H         1 UNK         0.0705 
     80 H80        33.1745   21.3643    2.4172 H         1 UNK         0.0705 
     81 H81        34.1877   24.0690    2.6436 H         1 UNK         0.1334 
     82 H82        34.1434   25.7322   -1.3047 H         1 UNK         0.1417 
     83 H83        31.6255   22.4017   -0.3686 H         1 UNK         0.1562 
     84 H84        31.5263   23.2911   -2.5452 H         1 UNK         0.0748 
     85 H85        33.1348   23.7287   -3.0640 H         1 UNK         0.0748 
     86 H86        30.1368   25.1862   -1.1897 H         1 UNK         0.0940 
     87 H87        29.3472   25.3934   -2.7241 H         1 UNK         0.0940 
     88 H88        30.2707   27.9162   -2.5275 H         1 UNK         0.0703 
     89 H89        27.8321   27.0830   -1.0334 H         1 UNK         0.3081 
     90 H90        25.9706   29.6111   -2.5800 H         1 UNK         0.0719 
     91 H91        25.7899   27.9981   -4.4816 H         1 UNK         0.0809 
     92 H92        25.6649   26.6552   -3.3540 H         1 UNK         0.0809 
     93 H93        24.3951   27.8787   -3.4233 H         1 UNK         0.0809 
     94 H94        25.2225   27.3105   -1.0192 H         1 UNK         0.2990 
     95 H95        26.4149   28.2989    2.0574 H         1 UNK         0.0690 
     96 H96        24.5442   29.9549    2.0868 H         1 UNK         0.0788 
     97 H97        24.1124   28.4917    2.9529 H         1 UNK         0.0788 
     98 H98        23.4761   28.7798    1.3319 H         1 UNK         0.0788 
     99 H99        24.3641   26.4536    1.5056 H         1 UNK         0.2993 
    100 H100       24.8088   24.2605    1.5409 H         1 UNK         0.0949 
    101 H101       24.6630   23.0874   -0.6651 H         1 UNK         0.0767 
    102 H102       24.2972   24.7921   -0.8536 H         1 UNK         0.0767 
    103 H103       25.8702   24.1785   -1.3453 H         1 UNK         0.0767 
    104 H104       26.9738   22.7955    0.3808 H         1 UNK         0.3013 
    105 H105       29.0976   26.6213    0.6352 H         1 UNK         0.3121 
    106 H106       31.3682   27.9289    2.0473 H         1 UNK         0.0774 
    107 H107       30.5480   26.5466    3.9608 H         1 UNK         0.0815 
    108 H108       29.2625   25.8902    2.9533 H         1 UNK         0.0815 
    109 H109       30.9538   25.5528    2.5700 H         1 UNK         0.0815 
    110 H110       30.3564   29.9811    1.2907 H         1 UNK         0.2987 
    111 H111       27.7981   30.8515    2.2213 H         1 UNK         0.0949 
    112 H112       28.5188   33.0414    1.2820 H         1 UNK         0.0806 
    113 H113       30.1532   32.4357    1.0677 H         1 UNK         0.0806 
    114 H114       28.8186   31.7254    0.1610 H         1 UNK         0.0806 
    115 H115       28.0993   30.1910    4.4634 H         1 UNK         0.3010 
    116 H116       27.9559   30.6847    6.6177 H         1 UNK         0.0829 
    117 H117       27.9769   33.6074    5.6783 H         1 UNK         0.0813 
    118 H118       26.5757   32.5867    5.9628 H         1 UNK         0.0813 
    119 H119       27.5822   33.0805    7.3110 H         1 UNK         0.0813 
    120 H120       29.9588   33.5546    6.1923 H         1 UNK         0.3038 
    121 H121       31.9527   32.6514    8.0993 H         1 UNK         0.0769 
    122 H122       31.8698   35.1152    6.2705 H         1 UNK         0.0811 
    123 H123       33.0153   34.8503    7.5777 H         1 UNK         0.0811 
    124 H124       31.3094   35.0484    7.9423 H         1 UNK         0.0811 
    125 H125       31.6183   32.5910    4.5748 H         1 UNK         0.3204 
    126 H126       34.4275   32.0512    4.0156 H         1 UNK         0.0748 
    127 H127       33.6071   31.5608    1.7378 H         1 UNK         0.0771 
    128 H128       31.9425   31.5750    2.2919 H         1 UNK         0.0771 
    129 H129       32.8874   33.0636    2.3019 H         1 UNK         0.0771 
    130 H130       35.4189   30.1123    4.0317 H         1 UNK         0.2980 
    131 H131       35.9090   28.0000    4.3332 H         1 UNK         0.0545 
    132 H132       34.2464   28.3423    7.8226 H         1 UNK         0.3459 
    133 H133       34.4175   29.6122    6.6360 H         1 UNK         0.3459 
    134 H134       33.0701   27.1960    3.5320 H         1 UNK         0.0616 
    135 H135       34.4471   26.1437    3.6318 H         1 UNK         0.0616 
    136 H136       35.9714   26.2493    0.2653 H         1 UNK         0.0634 
    137 H137       35.9881   25.6184    1.8900 H         1 UNK         0.0634 
@<TRIPOS>BOND
     1    1    2 1    
     2    1   72 1    
     3    1   73 1    
     4    1   74 1    
     5    2    3 2    
     6    2    4 am   BACKBONE|DICT|INTERRES
     7    4    5 1    
     8    4   75 1    
     9    5    6 1    
    10    5   35 1    
    11    5   76 1    
    12    6    7 1    
    13    6   77 1    
    14    6   78 1    
    15    7    8 1    
    16    8    9 1    
    17    8   79 1    
    18    8   80 1    
    19    9   10 ar   
    20    9   14 ar   
    21   10   11 ar   
    22   10   81 1    
    23   11   12 ar   
    24   11   71 1    
    25   12   13 ar   
    26   12   82 1    
    27   13   14 ar   
    28   13   15 1    
    29   14   83 1    
    30   15   16 1    
    31   15   84 1    
    32   15   85 1    
    33   16   17 1    
    34   17   18 1    
    35   17   86 1    
    36   17   87 1    
    37   18   19 1    
    38   18   37 1    
    39   18   88 1    
    40   19   20 am   BACKBONE|DICT|INTERRES
    41   19   89 1    
    42   20   21 2    
    43   20   22 1    
    44   22   23 1    
    45   22   24 1    
    46   22   90 1    
    47   23   91 1    
    48   23   92 1    
    49   23   93 1    
    50   24   25 am   BACKBONE|DICT|INTERRES
    51   24   94 1    
    52   25   26 2    
    53   25   27 1    
    54   27   28 1    
    55   27   29 1    
    56   27   95 1    
    57   28   96 1    
    58   28   97 1    
    59   28   98 1    
    60   29   30 am   BACKBONE|DICT|INTERRES
    61   29   99 1    
    62   30   31 2    
    63   30   32 1    
    64   32   33 1    
    65   32   34 1    
    66   32  100 1    
    67   33  101 1    
    68   33  102 1    
    69   33  103 1    
    70   34   35 am   BACKBONE|DICT|INTERRES
    71   34  104 1    
    72   35   36 2    
    73   37   38 2    
    74   37   39 am   BACKBONE|DICT|INTERRES
    75   39   40 1    
    76   39  105 1    
    77   40   41 1    
    78   40   42 1    
    79   40  106 1    
    80   41  107 1    
    81   41  108 1    
    82   41  109 1    
    83   42   43 2    
    84   42   44 am   BACKBONE|DICT|INTERRES
    85   44   45 1    
    86   44  110 1    
    87   45   46 1    
    88   45   47 1    
    89   45  111 1    
    90   46  112 1    
    91   46  113 1    
    92   46  114 1    
    93   47   48 2    
    94   47   49 am   BACKBONE|DICT|INTERRES
    95   49   50 1    
    96   49  115 1    
    97   50   51 1    
    98   50   52 1    
    99   50  116 1    
   100   51  117 1    
   101   51  118 1    
   102   51  119 1    
   103   52   53 2    
   104   52   54 am   BACKBONE|DICT|INTERRES
   105   54   55 1    
   106   54  120 1    
   107   55   56 1    
   108   55   57 1    
   109   55  121 1    
   110   56  122 1    
   111   56  123 1    
   112   56  124 1    
   113   57   58 2    
   114   57   59 am   BACKBONE|DICT|INTERRES
   115   59   60 1    
   116   59  125 1    
   117   60   61 1    
   118   60   62 1    
   119   60  126 1    
   120   61  127 1    
   121   61  128 1    
   122   61  129 1    
   123   62   63 2    
   124   62   64 am   BACKBONE|DICT|INTERRES
   125   64   65 1    
   126   64  130 1    
   127   65   66 1    
   128   65   69 1    
   129   65  131 1    
   130   66   67 am   BACKBONE|DICT|INTERRES
   131   66   68 2    
   132   67  132 1    
   133   67  133 1    
   134   69   70 1    
   135   69  134 1    
   136   69  135 1    
   137   70   71 1    
   138   71  136 1    
   139   71  137 1    
@<TRIPOS>SUBSTRUCTURE
     1 UNK         1 GROUP             0       ****    0 ROOT    
