@<TRIPOS>MOLECULE
3R136
137   139    1
SMALL
USER_CHARGES


@<TRIPOS>ATOM
      1 CA         32.4092   24.6216   -3.5271 C.3       0 UNK        -0.1979 
      2 C          31.1581   25.3768   -3.1033 C.2       0 UNK         0.4864 
      3 O          30.5645   26.0827   -3.9194 O.2       0 UNK        -0.5359 
      4 N          30.7564   25.2336   -1.8330 N.am      1 UNK        -0.4318 
      5 CA         29.5881   25.8989   -1.2406 C.3       1 UNK         0.0824 
      6 C6         29.5630   25.7764    0.3038 C.3       12 UNK        -0.0944 
      7 S7         31.0888   26.3267    1.1340 S.3       12 UNK        -0.2672 
      8 C8         31.7767   24.7451    1.7197 C.3       12 UNK         0.0333 
      9 C9         31.2632   24.3779    3.1055 C.ar      12 UNK        -0.0807 
     10 C10        32.0453   24.6526    4.2311 C.ar      12 UNK        -0.0894 
     11 C11        31.6087   24.2875    5.5080 C.ar      12 UNK        -0.0804 
     12 C12        30.3626   23.6718    5.6577 C.ar      12 UNK        -0.0824 
     13 C13        29.5668   23.3915    4.5414 C.ar      12 UNK        -0.0762 
     14 C14        30.0331   23.7305    3.2667 C.ar      12 UNK        -0.0782 
     15 C15        28.2258   22.6830    4.7227 C.3       12 UNK         0.0230 
     16 S16        26.8338   23.4930    3.8599 S.3       12 UNK        -0.2608 
     17 C17        26.9000   25.1875    4.5301 C.3       12 UNK        -0.0989 
     18 CA         27.2123   26.2109    3.4116 C.3       5 UNK         0.0716 
     19 N          26.0763   26.3647    2.4923 N.am      5 UNK        -0.4135 
     20 C          25.9825   27.2100    1.4553 C.2       4 UNK         0.5031 
     21 O          26.8700   27.9941    1.1163 O.2       4 UNK        -0.5229 
     22 CA         24.6749   27.1432    0.6463 C.3       4 UNK         0.0329 
     23 CB         24.5939   28.2290   -0.4437 C.3       4 UNK        -0.2001 
     24 N          24.5148   25.8322    0.0166 N.am      4 UNK        -0.4303 
     25 C          23.9922   24.7494    0.6085 C.2       3 UNK         0.5044 
     26 O          23.6031   24.7411    1.7773 O.2       3 UNK        -0.5152 
     27 CA         23.8773   23.4637   -0.2332 C.3       3 UNK         0.0319 
     28 CB         22.4491   23.3087   -0.7805 C.3       3 UNK        -0.2001 
     29 N          24.8269   23.4140   -1.3492 N.am      3 UNK        -0.4354 
     30 C          26.1397   23.1891   -1.2086 C.2       2 UNK         0.4964 
     31 O          26.6714   22.9262   -0.1281 O.2       2 UNK        -0.5047 
     32 CA         27.0252   23.2828   -2.4685 C.3       2 UNK         0.0288 
     33 CB         26.2972   23.7862   -3.7375 C.3       2 UNK        -0.2113 
     34 N          28.2204   24.0858   -2.1851 N.am      2 UNK        -0.4145 
     35 C          28.2470   25.3714   -1.7944 C.2       1 UNK         0.5006 
     36 O          27.2638   26.1140   -1.8054 O.2       1 UNK        -0.5103 
     37 C          27.6817   27.5480    4.0177 C.2       5 UNK         0.5055 
     38 O          26.8506   28.4020    4.3374 O.2       5 UNK        -0.5220 
     39 N          29.0077   27.6716    4.1776 N.am      6 UNK        -0.4450 
     40 CA         29.7377   28.8755    4.5890 C.3       6 UNK         0.0367 
     41 CB         29.3467   29.3229    6.0144 C.3       6 UNK        -0.1929 
     42 C          29.6264   29.9969    3.5404 C.2       6 UNK         0.5070 
     43 O          29.2507   31.1249    3.8655 O.2       6 UNK        -0.5237 
     44 N          29.9350   29.6490    2.2839 N.am      7 UNK        -0.4739 
     45 CA         29.9320   30.5561    1.1387 C.3       7 UNK         0.0276 
     46 CB         29.9979   29.7287   -0.1563 C.3       7 UNK        -0.1927 
     47 C          31.0914   31.5641    1.2232 C.2       7 UNK         0.5013 
     48 O          32.2334   31.2067    0.9226 O.2       7 UNK        -0.5193 
     49 N          30.7727   32.8009    1.6302 N.am      8 UNK        -0.4253 
     50 CA         31.6739   33.9511    1.7581 C.3       8 UNK         0.0242 
     51 CB         32.0910   34.4674    0.3611 C.3       8 UNK        -0.2000 
     52 C          32.8605   33.6568    2.6965 C.2       8 UNK         0.4948 
     53 O          32.6737   33.6434    3.9135 O.2       8 UNK        -0.5275 
     54 N          34.0496   33.4364    2.1210 N.am      9 UNK        -0.4246 
     55 CA         35.2853   33.1242    2.8393 C.3       9 UNK         0.0261 
     56 CB         36.4835   33.4558    1.9337 C.3       9 UNK        -0.1959 
     57 C          35.3713   31.6667    3.3296 C.2       9 UNK         0.5033 
     58 O          36.1992   31.3878    4.1998 O.2       9 UNK        -0.5390 
     59 N          34.5593   30.7568    2.7693 N.am      10 UNK        -0.4215 
     60 CA         34.5322   29.3450    3.1599 C.3       10 UNK         0.0240 
     61 CB         33.7525   28.5359    2.1127 C.3       10 UNK        -0.1982 
     62 C          33.9132   29.1525    4.5533 C.2       10 UNK         0.4970 
     63 O          33.0140   29.9048    4.9326 O.2       10 UNK        -0.4916 
     64 N          34.3881   28.1241    5.2681 N.am      11 UNK        -0.4279 
     65 CA         33.9345   27.7318    6.6149 C.3       11 UNK         0.1003 
     66 C          34.3179   28.7269    7.7558 C.2       11 UNK         0.5709 
     67 N          35.1878   29.7027    7.5204 N.am      11 UNK        -0.7358 
     68 O          33.8510   28.5963    8.8846 O.2       11 UNK        -0.4999 
     69 C69        32.4302   27.3252    6.6210 C.3       12 UNK        -0.0954 
     70 S70        32.0306   25.9362    7.7289 S.3       12 UNK        -0.2268 
     71 C71        32.5107   24.5005    6.7176 C.3       12 UNK         0.0203 
     72 H72        32.8344   24.0425   -2.7075 H         1 UNK         0.0888 
     73 H73        32.1761   23.9363   -4.3415 H         1 UNK         0.0888 
     74 H74        33.1684   25.3209   -3.8767 H         1 UNK         0.0888 
     75 H75        31.3048   24.6691   -1.2012 H         1 UNK         0.3017 
     76 H76        29.6484   26.9583   -1.4983 H         1 UNK         0.0873 
     77 H77        28.7568   26.3893    0.6992 H         1 UNK         0.0745 
     78 H78        29.3307   24.7534    0.5992 H         1 UNK         0.0745 
     79 H79        32.8642   24.8319    1.7378 H         1 UNK         0.0705 
     80 H80        31.5547   23.9461    1.0111 H         1 UNK         0.0705 
     81 H81        33.0081   25.1306    4.1111 H         1 UNK         0.1334 
     82 H82        30.0257   23.3904    6.6464 H         1 UNK         0.1417 
     83 H83        29.4305   23.4841    2.4044 H         1 UNK         0.1562 
     84 H84        27.9722   22.6038    5.7811 H         1 UNK         0.0748 
     85 H85        28.3180   21.6609    4.3534 H         1 UNK         0.0748 
     86 H86        27.6480   25.2260    5.3248 H         1 UNK         0.0940 
     87 H87        25.9474   25.4182    5.0109 H         1 UNK         0.0940 
     88 H88        28.0379   25.8222    2.8148 H         1 UNK         0.0703 
     89 H89        25.2930   25.7423    2.6523 H         1 UNK         0.3081 
     90 H90        23.8511   27.3143    1.3427 H         1 UNK         0.0719 
     91 H91        25.3885   28.1188   -1.1830 H         1 UNK         0.0809 
     92 H92        23.6393   28.1942   -0.9689 H         1 UNK         0.0809 
     93 H93        24.6885   29.2252   -0.0096 H         1 UNK         0.0809 
     94 H94        24.8931   25.7380   -0.9160 H         1 UNK         0.2990 
     95 H95        24.0796   22.6201    0.4306 H         1 UNK         0.0690 
     96 H96        22.3293   22.3671   -1.3170 H         1 UNK         0.0788 
     97 H97        22.1855   24.1200   -1.4602 H         1 UNK         0.0788 
     98 H98        21.7186   23.3126    0.0299 H         1 UNK         0.0788 
     99 H99        24.4660   23.6181   -2.2703 H         1 UNK         0.2993 
    100 H100       27.3741   22.2683   -2.6675 H         1 UNK         0.0949 
    101 H101       25.8577   24.7750   -3.6020 H         1 UNK         0.0767 
    102 H102       26.9860   23.8488   -4.5802 H         1 UNK         0.0767 
    103 H103       25.4993   23.1038   -4.0331 H         1 UNK         0.0767 
    104 H104       29.0841   23.5667   -2.1180 H         1 UNK         0.3013 
    105 H105       29.5895   26.8918    3.9017 H         1 UNK         0.3121 
    106 H106       30.7883   28.5946    4.6078 H         1 UNK         0.0774 
    107 H107       30.0193   30.1057    6.3671 H         1 UNK         0.0815 
    108 H108       28.3345   29.7256    6.0550 H         1 UNK         0.0815 
    109 H109       29.4065   28.4966    6.7225 H         1 UNK         0.0815 
    110 H110       30.2255   28.6996    2.0981 H         1 UNK         0.2987 
    111 H111       28.9859   31.1020    1.1358 H         1 UNK         0.0949 
    112 H112       29.9912   30.3766   -1.0336 H         1 UNK         0.0806 
    113 H113       30.9032   29.1222   -0.2064 H         1 UNK         0.0806 
    114 H114       29.1402   29.0606   -0.2397 H         1 UNK         0.0806 
    115 H115       29.8237   32.9595    1.9413 H         1 UNK         0.3010 
    116 H116       31.0984   34.7435    2.2393 H         1 UNK         0.0829 
    117 H117       31.2196   34.7920   -0.2078 H         1 UNK         0.0813 
    118 H118       32.7558   35.3288    0.4412 H         1 UNK         0.0813 
    119 H119       32.6002   33.7070   -0.2319 H         1 UNK         0.0813 
    120 H120       34.0962   33.4379    1.1120 H         1 UNK         0.3038 
    121 H121       35.3408   33.7649    3.7222 H         1 UNK         0.0769 
    122 H122       37.4265   33.2700    2.4499 H         1 UNK         0.0811 
    123 H123       36.4804   34.5052    1.6383 H         1 UNK         0.0811 
    124 H124       36.4844   32.8499    1.0266 H         1 UNK         0.0811 
    125 H125       33.8576   31.0577    2.0984 H         1 UNK         0.3204 
    126 H126       35.5619   28.9812    3.1777 H         1 UNK         0.0748 
    127 H127       33.7875   27.4688    2.3356 H         1 UNK         0.0771 
    128 H128       32.7023   28.8257    2.0827 H         1 UNK         0.0771 
    129 H129       34.1643   28.6723    1.1127 H         1 UNK         0.0771 
    130 H130       35.1407   27.5699    4.8856 H         1 UNK         0.2980 
    131 H131       34.5203   26.8390    6.8337 H         1 UNK         0.0545 
    132 H132       35.5748   29.8370    6.5992 H         1 UNK         0.3459 
    133 H133       35.4363   30.3306    8.2683 H         1 UNK         0.3459 
    134 H134       32.1064   27.0402    5.6214 H         1 UNK         0.0616 
    135 H135       31.8071   28.1762    6.8964 H         1 UNK         0.0616 
    136 H136       32.4797   23.6100    7.3470 H         1 UNK         0.0634 
    137 H137       33.5505   24.6099    6.4063 H         1 UNK         0.0634 
@<TRIPOS>BOND
     1    1    2 1    
     2    1   72 1    
     3    1   73 1    
     4    1   74 1    
     5    2    3 2    
     6    2    4 am   BACKBONE|DICT|INTERRES
     7    4    5 1    
     8    4   75 1    
     9    5    6 1    
    10    5   35 1    
    11    5   76 1    
    12    6    7 1    
    13    6   77 1    
    14    6   78 1    
    15    7    8 1    
    16    8    9 1    
    17    8   79 1    
    18    8   80 1    
    19    9   10 ar   
    20    9   14 ar   
    21   10   11 ar   
    22   10   81 1    
    23   11   12 ar   
    24   11   71 1    
    25   12   13 ar   
    26   12   82 1    
    27   13   14 ar   
    28   13   15 1    
    29   14   83 1    
    30   15   16 1    
    31   15   84 1    
    32   15   85 1    
    33   16   17 1    
    34   17   18 1    
    35   17   86 1    
    36   17   87 1    
    37   18   19 1    
    38   18   37 1    
    39   18   88 1    
    40   19   20 am   BACKBONE|DICT|INTERRES
    41   19   89 1    
    42   20   21 2    
    43   20   22 1    
    44   22   23 1    
    45   22   24 1    
    46   22   90 1    
    47   23   91 1    
    48   23   92 1    
    49   23   93 1    
    50   24   25 am   BACKBONE|DICT|INTERRES
    51   24   94 1    
    52   25   26 2    
    53   25   27 1    
    54   27   28 1    
    55   27   29 1    
    56   27   95 1    
    57   28   96 1    
    58   28   97 1    
    59   28   98 1    
    60   29   30 am   BACKBONE|DICT|INTERRES
    61   29   99 1    
    62   30   31 2    
    63   30   32 1    
    64   32   33 1    
    65   32   34 1    
    66   32  100 1    
    67   33  101 1    
    68   33  102 1    
    69   33  103 1    
    70   34   35 am   BACKBONE|DICT|INTERRES
    71   34  104 1    
    72   35   36 2    
    73   37   38 2    
    74   37   39 am   BACKBONE|DICT|INTERRES
    75   39   40 1    
    76   39  105 1    
    77   40   41 1    
    78   40   42 1    
    79   40  106 1    
    80   41  107 1    
    81   41  108 1    
    82   41  109 1    
    83   42   43 2    
    84   42   44 am   BACKBONE|DICT|INTERRES
    85   44   45 1    
    86   44  110 1    
    87   45   46 1    
    88   45   47 1    
    89   45  111 1    
    90   46  112 1    
    91   46  113 1    
    92   46  114 1    
    93   47   48 2    
    94   47   49 am   BACKBONE|DICT|INTERRES
    95   49   50 1    
    96   49  115 1    
    97   50   51 1    
    98   50   52 1    
    99   50  116 1    
   100   51  117 1    
   101   51  118 1    
   102   51  119 1    
   103   52   53 2    
   104   52   54 am   BACKBONE|DICT|INTERRES
   105   54   55 1    
   106   54  120 1    
   107   55   56 1    
   108   55   57 1    
   109   55  121 1    
   110   56  122 1    
   111   56  123 1    
   112   56  124 1    
   113   57   58 2    
   114   57   59 am   BACKBONE|DICT|INTERRES
   115   59   60 1    
   116   59  125 1    
   117   60   61 1    
   118   60   62 1    
   119   60  126 1    
   120   61  127 1    
   121   61  128 1    
   122   61  129 1    
   123   62   63 2    
   124   62   64 am   BACKBONE|DICT|INTERRES
   125   64   65 1    
   126   64  130 1    
   127   65   66 1    
   128   65   69 1    
   129   65  131 1    
   130   66   67 am   BACKBONE|DICT|INTERRES
   131   66   68 2    
   132   67  132 1    
   133   67  133 1    
   134   69   70 1    
   135   69  134 1    
   136   69  135 1    
   137   70   71 1    
   138   71  136 1    
   139   71  137 1    
@<TRIPOS>SUBSTRUCTURE
     1 UNK         1 GROUP             0       ****    0 ROOT    
