@<TRIPOS>MOLECULE
3R136
137   139    1
SMALL
USER_CHARGES


@<TRIPOS>ATOM
      1 CA         28.3285   26.0849   -3.7152 C.3       0 UNK        -0.1979 
      2 C          28.9292   25.1681   -2.6603 C.2       0 UNK         0.4864 
      3 O          29.9121   24.4816   -2.9383 O.2       0 UNK        -0.5359 
      4 N          28.3172   25.1255   -1.4686 N.am      1 UNK        -0.4318 
      5 CA         28.6512   24.2806   -0.3118 C.3       1 UNK         0.0824 
      6 C6         30.0564   24.5591    0.2880 C.3       12 UNK        -0.0944 
      7 S7         30.0555   26.1391    1.1999 S.3       12 UNK        -0.2672 
      8 C8         30.0717   25.5121    2.9080 C.3       12 UNK         0.0333 
      9 C9         29.7420   26.6113    3.9028 C.ar      12 UNK        -0.0807 
     10 C10        30.7616   27.3306    4.5321 C.ar      12 UNK        -0.0894 
     11 C11        30.4496   28.3311    5.4568 C.ar      12 UNK        -0.0804 
     12 C12        29.1113   28.6253    5.7309 C.ar      12 UNK        -0.0824 
     13 C13        28.0806   27.9138    5.1101 C.ar      12 UNK        -0.0762 
     14 C14        28.4079   26.8926    4.2097 C.ar      12 UNK        -0.0782 
     15 C15        26.6327   28.2563    5.4621 C.3       12 UNK         0.0230 
     16 S16        25.4135   27.9415    4.1389 S.3       12 UNK        -0.2608 
     17 C17        26.0401   28.9828    2.7753 C.3       12 UNK        -0.0989 
     18 CA         26.2879   28.1602    1.4855 C.3       5 UNK         0.0716 
     19 N          25.0546   27.5134    1.0228 N.am      5 UNK        -0.4135 
     20 C          24.9699   26.6049    0.0453 C.2       4 UNK         0.5031 
     21 O          25.9340   26.1883   -0.6003 O.2       4 UNK        -0.5229 
     22 CA         23.5630   26.0884   -0.2914 C.3       4 UNK         0.0329 
     23 CB         22.9943   26.8457   -1.5019 C.3       4 UNK        -0.2001 
     24 N          23.5901   24.6554   -0.5913 N.am      4 UNK        -0.4303 
     25 C          23.6847   23.6893    0.3332 C.2       3 UNK         0.5044 
     26 O          23.7049   23.8963    1.5468 O.2       3 UNK        -0.5152 
     27 CA         23.8129   22.2549   -0.1907 C.3       3 UNK         0.0319 
     28 CB         22.6090   21.8387   -1.0597 C.3       3 UNK        -0.2001 
     29 N          25.0662   22.1353   -0.9300 N.am      3 UNK        -0.4354 
     30 C          25.7292   20.9965   -1.1744 C.2       2 UNK         0.4964 
     31 O          25.3200   19.8801   -0.8541 O.2       2 UNK        -0.5047 
     32 CA         27.0877   21.1244   -1.8904 C.3       2 UNK         0.0288 
     33 CB         26.9212   20.9138   -3.4043 C.3       2 UNK        -0.2113 
     34 N          27.7125   22.4278   -1.6518 N.am      2 UNK        -0.4145 
     35 C          28.3398   22.7803   -0.5195 C.2       1 UNK         0.5006 
     36 O          28.5961   21.9795    0.3816 O.2       1 UNK        -0.5103 
     37 C          26.8913   29.0583    0.3880 C.2       5 UNK         0.5055 
     38 O          26.1376   29.7357   -0.3168 O.2       5 UNK        -0.5220 
     39 N          28.2269   29.0733    0.2790 N.am      6 UNK        -0.4450 
     40 CA         28.9437   29.8632   -0.7262 C.3       6 UNK         0.0367 
     41 CB         28.9280   29.1393   -2.0838 C.3       6 UNK        -0.1929 
     42 C          30.3866   30.2011   -0.3302 C.2       6 UNK         0.5070 
     43 O          30.8383   31.2992   -0.6547 O.2       6 UNK        -0.5237 
     44 N          31.1009   29.2630    0.3140 N.am      7 UNK        -0.4739 
     45 CA         32.5423   29.3733    0.5797 C.3       7 UNK         0.0276 
     46 CB         33.0770   28.0485    1.1464 C.3       7 UNK        -0.1927 
     47 C          32.9338   30.5478    1.4906 C.2       7 UNK         0.5013 
     48 O          33.8958   31.2503    1.1771 O.2       7 UNK        -0.5193 
     49 N          32.1798   30.7341    2.5852 N.am      8 UNK        -0.4253 
     50 CA         32.2897   31.7867    3.6082 C.3       8 UNK         0.0242 
     51 CB         31.9801   33.1754    3.0147 C.3       8 UNK        -0.2000 
     52 C          33.6196   31.7922    4.3870 C.2       8 UNK         0.4948 
     53 O          33.6147   31.5664    5.5968 O.2       8 UNK        -0.5275 
     54 N          34.7365   32.0216    3.6852 N.am      9 UNK        -0.4246 
     55 CA         36.0992   32.0815    4.2252 C.3       9 UNK         0.0261 
     56 CB         37.0628   32.5333    3.1169 C.3       9 UNK        -0.1959 
     57 C          36.5786   30.7603    4.8502 C.2       9 UNK         0.5033 
     58 O          37.4160   30.7895    5.7528 O.2       9 UNK        -0.5390 
     59 N          36.0075   29.6337    4.3995 N.am      10 UNK        -0.4215 
     60 CA         36.2246   28.2873    4.9388 C.3       10 UNK         0.0240 
     61 CB         35.4400   27.2753    4.0879 C.3       10 UNK        -0.1982 
     62 C          35.8530   28.1351    6.4272 C.2       10 UNK         0.4970 
     63 O          36.4027   27.2557    7.0913 O.2       10 UNK        -0.4916 
     64 N          34.9496   28.9906    6.9223 N.am      11 UNK        -0.4279 
     65 CA         34.5688   29.0808    8.3380 C.3       11 UNK         0.1003 
     66 C          35.5269   29.9683    9.1870 C.2       11 UNK         0.5709 
     67 N          36.5453   30.6056    8.6187 N.am      11 UNK        -0.7358 
     68 O          35.3529   30.0685   10.3994 O.2       11 UNK        -0.4999 
     69 C69        33.0906   29.5223    8.4942 C.3       12 UNK        -0.0954 
     70 S70        31.9232   28.3160    7.7808 S.3       12 UNK        -0.2268 
     71 C71        31.5520   29.0864    6.1773 C.3       12 UNK         0.0203 
     72 H72        27.4780   26.6463   -3.3280 H         1 UNK         0.0888 
     73 H73        29.0756   26.7946   -4.0687 H         1 UNK         0.0888 
     74 H74        27.9867   25.5001   -4.5687 H         1 UNK         0.0888 
     75 H75        27.4812   25.6913   -1.3147 H         1 UNK         0.3017 
     76 H76        27.9222   24.5663    0.4486 H         1 UNK         0.0873 
     77 H77        30.3700   23.7652    0.9679 H         1 UNK         0.0745 
     78 H78        30.8221   24.5958   -0.4871 H         1 UNK         0.0745 
     79 H79        29.3473   24.7016    3.0070 H         1 UNK         0.0705 
     80 H80        31.0501   25.0804    3.1249 H         1 UNK         0.0705 
     81 H81        31.7956   27.0989    4.3178 H         1 UNK         0.1334 
     82 H82        28.8738   29.4003    6.4474 H         1 UNK         0.1417 
     83 H83        27.6258   26.3120    3.7411 H         1 UNK         0.1562 
     84 H84        26.5563   29.3072    5.7467 H         1 UNK         0.0748 
     85 H85        26.3458   27.6779    6.3411 H         1 UNK         0.0748 
     86 H86        26.9568   29.4838    3.0926 H         1 UNK         0.0940 
     87 H87        25.3146   29.7782    2.5924 H         1 UNK         0.0940 
     88 H88        27.0063   27.3674    1.7014 H         1 UNK         0.0703 
     89 H89        24.2086   27.8100    1.4858 H         1 UNK         0.3081 
     90 H90        22.9047   26.2550    0.5643 H         1 UNK         0.0719 
     91 H91        23.6142   26.7127   -2.3898 H         1 UNK         0.0809 
     92 H92        21.9852   26.5105   -1.7425 H         1 UNK         0.0809 
     93 H93        22.9402   27.9167   -1.3019 H         1 UNK         0.0809 
     94 H94        23.5966   24.4007   -1.5679 H         1 UNK         0.2990 
     95 H95        23.8563   21.5940    0.6779 H         1 UNK         0.0690 
     96 H96        22.6508   20.7785   -1.3096 H         1 UNK         0.0788 
     97 H97        22.5649   22.3967   -1.9953 H         1 UNK         0.0788 
     98 H98        21.6697   22.0070   -0.5312 H         1 UNK         0.0788 
     99 H99        25.5010   23.0076   -1.1947 H         1 UNK         0.2993 
    100 H100       27.7435   20.3413   -1.5028 H         1 UNK         0.0949 
    101 H101       26.2702   21.6670   -3.8501 H         1 UNK         0.0767 
    102 H102       27.8822   20.9535   -3.9177 H         1 UNK         0.0767 
    103 H103       26.4825   19.9374   -3.6154 H         1 UNK         0.0767 
    104 H104       27.5794   23.1374   -2.3570 H         1 UNK         0.3013 
    105 H105       28.7830   28.5201    0.9158 H         1 UNK         0.3121 
    106 H106       28.4287   30.8197   -0.8439 H         1 UNK         0.0774 
    107 H107       29.4192   28.1688   -2.0161 H         1 UNK         0.0815 
    108 H108       29.4522   29.7194   -2.8446 H         1 UNK         0.0815 
    109 H109       27.9110   28.9824   -2.4429 H         1 UNK         0.0815 
    110 H110       30.6852   28.3604    0.5000 H         1 UNK         0.2987 
    111 H111       33.0325   29.5424   -0.3819 H         1 UNK         0.0949 
    112 H112       32.9088   27.2241    0.4532 H         1 UNK         0.0806 
    113 H113       34.1522   28.1049    1.3195 H         1 UNK         0.0806 
    114 H114       32.6045   27.7905    2.0939 H         1 UNK         0.0806 
    115 H115       31.4249   30.0778    2.7278 H         1 UNK         0.3010 
    116 H116       31.5066   31.5720    4.3367 H         1 UNK         0.0829 
    117 H117       32.0067   33.9448    3.7875 H         1 UNK         0.0813 
    118 H118       32.6949   33.4648    2.2439 H         1 UNK         0.0813 
    119 H119       30.9857   33.1992    2.5687 H         1 UNK         0.0813 
    120 H120       34.6335   32.0907    2.6750 H         1 UNK         0.3038 
    121 H121       36.1063   32.8342    5.0160 H         1 UNK         0.0769 
    122 H122       37.0714   31.8342    2.2797 H         1 UNK         0.0811 
    123 H123       38.0843   32.6066    3.4927 H         1 UNK         0.0811 
    124 H124       36.7903   33.5155    2.7305 H         1 UNK         0.0811 
    125 H125       35.3413   29.7200    3.6468 H         1 UNK         0.3204 
    126 H126       37.2896   28.0647    4.8471 H         1 UNK         0.0748 
    127 H127       35.5868   26.2586    4.4556 H         1 UNK         0.0771 
    128 H128       34.3683   27.4761    4.1072 H         1 UNK         0.0771 
    129 H129       35.7697   27.2899    3.0491 H         1 UNK         0.0771 
    130 H130       34.5704   29.7140    6.3244 H         1 UNK         0.2980 
    131 H131       34.6488   28.0834    8.7741 H         1 UNK         0.0545 
    132 H132       37.1509   31.1657    9.1966 H         1 UNK         0.3459 
    133 H133       36.7288   30.5355    7.6239 H         1 UNK         0.3459 
    134 H134       32.8311   29.6220    9.5496 H         1 UNK         0.0616 
    135 H135       32.9304   30.5064    8.0509 H         1 UNK         0.0616 
    136 H136       31.2522   30.1238    6.3323 H         1 UNK         0.0634 
    137 H137       32.4545   29.1046    5.5660 H         1 UNK         0.0634 
@<TRIPOS>BOND
     1    1    2 1    
     2    1   72 1    
     3    1   73 1    
     4    1   74 1    
     5    2    3 2    
     6    2    4 am   BACKBONE|DICT|INTERRES
     7    4    5 1    
     8    4   75 1    
     9    5    6 1    
    10    5   35 1    
    11    5   76 1    
    12    6    7 1    
    13    6   77 1    
    14    6   78 1    
    15    7    8 1    
    16    8    9 1    
    17    8   79 1    
    18    8   80 1    
    19    9   10 ar   
    20    9   14 ar   
    21   10   11 ar   
    22   10   81 1    
    23   11   12 ar   
    24   11   71 1    
    25   12   13 ar   
    26   12   82 1    
    27   13   14 ar   
    28   13   15 1    
    29   14   83 1    
    30   15   16 1    
    31   15   84 1    
    32   15   85 1    
    33   16   17 1    
    34   17   18 1    
    35   17   86 1    
    36   17   87 1    
    37   18   19 1    
    38   18   37 1    
    39   18   88 1    
    40   19   20 am   BACKBONE|DICT|INTERRES
    41   19   89 1    
    42   20   21 2    
    43   20   22 1    
    44   22   23 1    
    45   22   24 1    
    46   22   90 1    
    47   23   91 1    
    48   23   92 1    
    49   23   93 1    
    50   24   25 am   BACKBONE|DICT|INTERRES
    51   24   94 1    
    52   25   26 2    
    53   25   27 1    
    54   27   28 1    
    55   27   29 1    
    56   27   95 1    
    57   28   96 1    
    58   28   97 1    
    59   28   98 1    
    60   29   30 am   BACKBONE|DICT|INTERRES
    61   29   99 1    
    62   30   31 2    
    63   30   32 1    
    64   32   33 1    
    65   32   34 1    
    66   32  100 1    
    67   33  101 1    
    68   33  102 1    
    69   33  103 1    
    70   34   35 am   BACKBONE|DICT|INTERRES
    71   34  104 1    
    72   35   36 2    
    73   37   38 2    
    74   37   39 am   BACKBONE|DICT|INTERRES
    75   39   40 1    
    76   39  105 1    
    77   40   41 1    
    78   40   42 1    
    79   40  106 1    
    80   41  107 1    
    81   41  108 1    
    82   41  109 1    
    83   42   43 2    
    84   42   44 am   BACKBONE|DICT|INTERRES
    85   44   45 1    
    86   44  110 1    
    87   45   46 1    
    88   45   47 1    
    89   45  111 1    
    90   46  112 1    
    91   46  113 1    
    92   46  114 1    
    93   47   48 2    
    94   47   49 am   BACKBONE|DICT|INTERRES
    95   49   50 1    
    96   49  115 1    
    97   50   51 1    
    98   50   52 1    
    99   50  116 1    
   100   51  117 1    
   101   51  118 1    
   102   51  119 1    
   103   52   53 2    
   104   52   54 am   BACKBONE|DICT|INTERRES
   105   54   55 1    
   106   54  120 1    
   107   55   56 1    
   108   55   57 1    
   109   55  121 1    
   110   56  122 1    
   111   56  123 1    
   112   56  124 1    
   113   57   58 2    
   114   57   59 am   BACKBONE|DICT|INTERRES
   115   59   60 1    
   116   59  125 1    
   117   60   61 1    
   118   60   62 1    
   119   60  126 1    
   120   61  127 1    
   121   61  128 1    
   122   61  129 1    
   123   62   63 2    
   124   62   64 am   BACKBONE|DICT|INTERRES
   125   64   65 1    
   126   64  130 1    
   127   65   66 1    
   128   65   69 1    
   129   65  131 1    
   130   66   67 am   BACKBONE|DICT|INTERRES
   131   66   68 2    
   132   67  132 1    
   133   67  133 1    
   134   69   70 1    
   135   69  134 1    
   136   69  135 1    
   137   70   71 1    
   138   71  136 1    
   139   71  137 1    
@<TRIPOS>SUBSTRUCTURE
     1 UNK         1 GROUP             0       ****    0 ROOT    
