@<TRIPOS>MOLECULE
3R136
137   139    1
SMALL
USER_CHARGES


@<TRIPOS>ATOM
      1 CA         32.3438   27.0523   -1.7643 C.3       0 UNK        -0.1979 
      2 C          31.6386   25.7992   -1.2671 C.2       0 UNK         0.4864 
      3 O          31.0980   25.0446   -2.0782 O.2       0 UNK        -0.5359 
      4 N          31.6372   25.5827    0.0562 N.am      1 UNK        -0.4318 
      5 CA         31.0255   24.4582    0.7753 C.3       1 UNK         0.0824 
      6 C6         31.8725   23.1571    0.6826 C.3       12 UNK        -0.0944 
      7 S7         33.3907   23.2888    1.6823 S.3       12 UNK        -0.2672 
      8 C8         32.9151   22.3656    3.1829 C.3       12 UNK         0.0333 
      9 C9         31.7557   23.0245    3.9201 C.ar      12 UNK        -0.0807 
     10 C10        31.9830   24.1508    4.7152 C.ar      12 UNK        -0.0894 
     11 C11        30.9245   24.7809    5.3780 C.ar      12 UNK        -0.0804 
     12 C12        29.6334   24.2547    5.2628 C.ar      12 UNK        -0.0824 
     13 C13        29.3914   23.1243    4.4755 C.ar      12 UNK        -0.0762 
     14 C14        30.4577   22.5141    3.8068 C.ar      12 UNK        -0.0782 
     15 C15        27.9882   22.5381    4.3708 C.3       12 UNK         0.0230 
     16 S16        26.9820   23.3538    3.0870 S.3       12 UNK        -0.2608 
     17 C17        26.3589   24.8288    3.9630 C.3       12 UNK        -0.0989 
     18 CA         27.0708   26.1305    3.5059 C.3       5 UNK         0.0716 
     19 N          26.7998   26.4978    2.1082 N.am      5 UNK        -0.4135 
     20 C          25.6499   26.9766    1.6112 C.2       4 UNK         0.5031 
     21 O          24.6033   27.0502    2.2567 O.2       4 UNK        -0.5229 
     22 CA         25.6542   27.5060    0.1690 C.3       4 UNK         0.0329 
     23 CB         26.0098   29.0061    0.1492 C.3       4 UNK        -0.2001 
     24 N          26.5260   26.7562   -0.7424 N.am      4 UNK        -0.4303 
     25 C          26.3615   26.7352   -2.0756 C.2       3 UNK         0.5044 
     26 O          25.4871   27.3734   -2.6644 O.2       3 UNK        -0.5152 
     27 CA         27.3135   25.8571   -2.9143 C.3       3 UNK         0.0319 
     28 CB         28.4669   26.7080   -3.4692 C.3       3 UNK        -0.2001 
     29 N          27.8678   24.7168   -2.1840 N.am      3 UNK        -0.4354 
     30 C          27.1450   23.7277   -1.6373 C.2       2 UNK         0.4964 
     31 O          25.9370   23.5843   -1.8300 O.2       2 UNK        -0.5047 
     32 CA         27.8645   22.7467   -0.6909 C.3       2 UNK         0.0288 
     33 CB         27.9560   21.3500   -1.3277 C.3       2 UNK        -0.2113 
     34 N          29.2047   23.1496   -0.2491 N.am      2 UNK        -0.4145 
     35 C          29.5446   24.2847    0.3822 C.2       1 UNK         0.5006 
     36 O          28.7557   25.2020    0.6193 O.2       1 UNK        -0.5103 
     37 C          26.8332   27.3244    4.4610 C.2       5 UNK         0.5055 
     38 O          26.1840   27.1763    5.4991 O.2       5 UNK        -0.5220 
     39 N          27.3489   28.4955    4.0657 N.am      6 UNK        -0.4450 
     40 CA         27.2911   29.7512    4.8119 C.3       6 UNK         0.0367 
     41 CB         27.2089   30.9115    3.7974 C.3       6 UNK        -0.1929 
     42 C          28.4846   29.8613    5.7847 C.2       6 UNK         0.5070 
     43 O          28.8959   28.8596    6.3712 O.2       6 UNK        -0.5237 
     44 N          29.0267   31.0718    5.9440 N.am      7 UNK        -0.4739 
     45 CA         30.2499   31.3685    6.6830 C.3       7 UNK         0.0276 
     46 CB         29.9016   31.8626    8.0970 C.3       7 UNK        -0.1927 
     47 C          31.0119   32.4350    5.8894 C.2       7 UNK         0.5013 
     48 O          30.3687   33.3000    5.2867 O.2       7 UNK        -0.5193 
     49 N          32.3506   32.3382    5.9000 N.am      8 UNK        -0.4253 
     50 CA         33.3144   33.0657    5.0556 C.3       8 UNK         0.0242 
     51 CB         33.1949   34.5938    5.2394 C.3       8 UNK        -0.2000 
     52 C          33.2185   32.6581    3.5704 C.2       8 UNK         0.4948 
     53 O          32.2812   31.9615    3.1786 O.2       8 UNK        -0.5275 
     54 N          34.2226   33.0533    2.7710 N.am      9 UNK        -0.4246 
     55 CA         34.3546   32.7746    1.3284 C.3       9 UNK         0.0261 
     56 CB         33.3595   33.6413    0.5275 C.3       9 UNK        -0.1959 
     57 C          34.2391   31.2719    0.9865 C.2       9 UNK         0.5033 
     58 O          33.4875   30.8924    0.0850 O.2       9 UNK        -0.5390 
     59 N          34.9374   30.4404    1.7761 N.am      10 UNK        -0.4215 
     60 CA         34.9038   28.9699    1.7665 C.3       10 UNK         0.0240 
     61 CB         35.5350   28.4169    0.4698 C.3       10 UNK        -0.1982 
     62 C          33.5060   28.3722    2.0427 C.2       10 UNK         0.4970 
     63 O          33.2350   27.2515    1.6136 O.2       10 UNK        -0.4916 
     64 N          32.6454   29.1258    2.7402 N.am      11 UNK        -0.4279 
     65 CA         31.2373   28.8142    3.0309 C.3       11 UNK         0.1003 
     66 C          30.2974   28.9227    1.7941 C.2       11 UNK         0.5709 
     67 N          30.7220   29.5006    0.6756 N.am      11 UNK        -0.7358 
     68 O          29.1448   28.5038    1.8621 O.2       11 UNK        -0.4999 
     69 C69        31.0285   27.4886    3.8155 C.3       12 UNK        -0.0954 
     70 S70        32.0528   27.3466    5.3171 S.3       12 UNK        -0.2268 
     71 C71        31.1681   26.0302    6.2201 C.3       12 UNK         0.0203 
     72 H72        33.2932   26.7891   -2.2294 H         1 UNK         0.0888 
     73 H73        31.7287   27.5620   -2.5052 H         1 UNK         0.0888 
     74 H74        32.5417   27.7549   -0.9554 H         1 UNK         0.0888 
     75 H75        32.1469   26.2345    0.6530 H         1 UNK         0.3017 
     76 H76        30.9904   24.7594    1.8221 H         1 UNK         0.0873 
     77 H77        32.1521   22.9462   -0.3512 H         1 UNK         0.0745 
     78 H78        31.3206   22.2841    1.0334 H         1 UNK         0.0745 
     79 H79        33.7789   22.3056    3.8465 H         1 UNK         0.0705 
     80 H80        32.6686   21.3374    2.9134 H         1 UNK         0.0705 
     81 H81        32.9837   24.5527    4.7993 H         1 UNK         0.1334 
     82 H82        28.8137   24.7272    5.7862 H         1 UNK         0.1417 
     83 H83        30.2756   21.6379    3.1994 H         1 UNK         0.1562 
     84 H84        27.4828   22.5883    5.3363 H         1 UNK         0.0748 
     85 H85        28.0516   21.4761    4.1285 H         1 UNK         0.0748 
     86 H86        26.4811   24.6712    5.0355 H         1 UNK         0.0940 
     87 H87        25.2828   24.9039    3.7998 H         1 UNK         0.0940 
     88 H88        28.1444   25.9446    3.5466 H         1 UNK         0.0703 
     89 H89        27.6111   26.4222    1.5016 H         1 UNK         0.3081 
     90 H90        24.6272   27.3996   -0.1880 H         1 UNK         0.0719 
     91 H91        27.0550   29.1754    0.4068 H         1 UNK         0.0809 
     92 H92        25.8337   29.4464   -0.8321 H         1 UNK         0.0809 
     93 H93        25.4027   29.5638    0.8636 H         1 UNK         0.0809 
     94 H94        27.2556   26.1822   -0.3313 H         1 UNK         0.2990 
     95 H95        26.7411   25.4620   -3.7560 H         1 UNK         0.0690 
     96 H96        29.1252   26.1191   -4.1083 H         1 UNK         0.0788 
     97 H97        29.0714   27.1348   -2.6679 H         1 UNK         0.0788 
     98 H98        28.0880   27.5366   -4.0690 H         1 UNK         0.0788 
     99 H99        28.8629   24.7461   -1.9924 H         1 UNK         0.2993 
    100 H100       27.2429   22.6729    0.2029 H         1 UNK         0.0949 
    101 H101       28.3551   20.6178   -0.6253 H         1 UNK         0.0767 
    102 H102       26.9720   20.9936   -1.6363 H         1 UNK         0.0767 
    103 H103       28.5939   21.3525   -2.2126 H         1 UNK         0.0767 
    104 H104       29.9435   22.4929   -0.4521 H         1 UNK         0.3013 
    105 H105       27.8998   28.5067    3.2091 H         1 UNK         0.3121 
    106 H106       26.3820   29.7679    5.4165 H         1 UNK         0.0774 
    107 H107       27.0206   31.8648    4.2924 H         1 UNK         0.0815 
    108 H108       28.1274   31.0099    3.2165 H         1 UNK         0.0815 
    109 H109       26.3903   30.7587    3.0936 H         1 UNK         0.0815 
    110 H110       28.6816   31.8501    5.3954 H         1 UNK         0.2987 
    111 H111       30.8688   30.4702    6.7511 H         1 UNK         0.0949 
    112 H112       30.8043   32.0952    8.6632 H         1 UNK         0.0806 
    113 H113       29.2902   32.7654    8.0691 H         1 UNK         0.0806 
    114 H114       29.3537   31.1040    8.6563 H         1 UNK         0.0806 
    115 H115       32.7541   31.5863    6.4414 H         1 UNK         0.3010 
    116 H116       34.3025   32.7614    5.4047 H         1 UNK         0.0829 
    117 H117       33.1965   34.8681    6.2943 H         1 UNK         0.0813 
    118 H118       34.0316   35.1135    4.7716 H         1 UNK         0.0813 
    119 H119       32.2832   34.9903    4.7916 H         1 UNK         0.0813 
    120 H120       34.9685   33.6014    3.1780 H         1 UNK         0.3038 
    121 H121       35.3626   33.0765    1.0399 H         1 UNK         0.0769 
    122 H122       33.5071   33.5171   -0.5461 H         1 UNK         0.0811 
    123 H123       33.4859   34.7005    0.7510 H         1 UNK         0.0811 
    124 H124       32.3251   33.3734    0.7468 H         1 UNK         0.0811 
    125 H125       35.5102   30.8569    2.4976 H         1 UNK         0.3204 
    126 H126       35.5302   28.6467    2.5990 H         1 UNK         0.0748 
    127 H127       35.6367   27.3316    0.5131 H         1 UNK         0.0771 
    128 H128       34.9304   28.6507   -0.4070 H         1 UNK         0.0771 
    129 H129       36.5319   28.8266    0.3081 H         1 UNK         0.0771 
    130 H130       32.9071   30.0761    2.9758 H         1 UNK         0.2980 
    131 H131       30.9069   29.6188    3.6881 H         1 UNK         0.0545 
    132 H132       30.0884   29.5781   -0.1021 H         1 UNK         0.3459 
    133 H133       31.6524   29.8958    0.6111 H         1 UNK         0.3459 
    134 H134       29.9873   27.3988    4.1240 H         1 UNK         0.0616 
    135 H135       31.2306   26.6287    3.1780 H         1 UNK         0.0616 
    136 H136       31.7483   25.7568    7.1020 H         1 UNK         0.0634 
    137 H137       30.2247   26.4393    6.5849 H         1 UNK         0.0634 
@<TRIPOS>BOND
     1    1    2 1    
     2    1   72 1    
     3    1   73 1    
     4    1   74 1    
     5    2    3 2    
     6    2    4 am   BACKBONE|DICT|INTERRES
     7    4    5 1    
     8    4   75 1    
     9    5    6 1    
    10    5   35 1    
    11    5   76 1    
    12    6    7 1    
    13    6   77 1    
    14    6   78 1    
    15    7    8 1    
    16    8    9 1    
    17    8   79 1    
    18    8   80 1    
    19    9   10 ar   
    20    9   14 ar   
    21   10   11 ar   
    22   10   81 1    
    23   11   12 ar   
    24   11   71 1    
    25   12   13 ar   
    26   12   82 1    
    27   13   14 ar   
    28   13   15 1    
    29   14   83 1    
    30   15   16 1    
    31   15   84 1    
    32   15   85 1    
    33   16   17 1    
    34   17   18 1    
    35   17   86 1    
    36   17   87 1    
    37   18   19 1    
    38   18   37 1    
    39   18   88 1    
    40   19   20 am   BACKBONE|DICT|INTERRES
    41   19   89 1    
    42   20   21 2    
    43   20   22 1    
    44   22   23 1    
    45   22   24 1    
    46   22   90 1    
    47   23   91 1    
    48   23   92 1    
    49   23   93 1    
    50   24   25 am   BACKBONE|DICT|INTERRES
    51   24   94 1    
    52   25   26 2    
    53   25   27 1    
    54   27   28 1    
    55   27   29 1    
    56   27   95 1    
    57   28   96 1    
    58   28   97 1    
    59   28   98 1    
    60   29   30 am   BACKBONE|DICT|INTERRES
    61   29   99 1    
    62   30   31 2    
    63   30   32 1    
    64   32   33 1    
    65   32   34 1    
    66   32  100 1    
    67   33  101 1    
    68   33  102 1    
    69   33  103 1    
    70   34   35 am   BACKBONE|DICT|INTERRES
    71   34  104 1    
    72   35   36 2    
    73   37   38 2    
    74   37   39 am   BACKBONE|DICT|INTERRES
    75   39   40 1    
    76   39  105 1    
    77   40   41 1    
    78   40   42 1    
    79   40  106 1    
    80   41  107 1    
    81   41  108 1    
    82   41  109 1    
    83   42   43 2    
    84   42   44 am   BACKBONE|DICT|INTERRES
    85   44   45 1    
    86   44  110 1    
    87   45   46 1    
    88   45   47 1    
    89   45  111 1    
    90   46  112 1    
    91   46  113 1    
    92   46  114 1    
    93   47   48 2    
    94   47   49 am   BACKBONE|DICT|INTERRES
    95   49   50 1    
    96   49  115 1    
    97   50   51 1    
    98   50   52 1    
    99   50  116 1    
   100   51  117 1    
   101   51  118 1    
   102   51  119 1    
   103   52   53 2    
   104   52   54 am   BACKBONE|DICT|INTERRES
   105   54   55 1    
   106   54  120 1    
   107   55   56 1    
   108   55   57 1    
   109   55  121 1    
   110   56  122 1    
   111   56  123 1    
   112   56  124 1    
   113   57   58 2    
   114   57   59 am   BACKBONE|DICT|INTERRES
   115   59   60 1    
   116   59  125 1    
   117   60   61 1    
   118   60   62 1    
   119   60  126 1    
   120   61  127 1    
   121   61  128 1    
   122   61  129 1    
   123   62   63 2    
   124   62   64 am   BACKBONE|DICT|INTERRES
   125   64   65 1    
   126   64  130 1    
   127   65   66 1    
   128   65   69 1    
   129   65  131 1    
   130   66   67 am   BACKBONE|DICT|INTERRES
   131   66   68 2    
   132   67  132 1    
   133   67  133 1    
   134   69   70 1    
   135   69  134 1    
   136   69  135 1    
   137   70   71 1    
   138   71  136 1    
   139   71  137 1    
@<TRIPOS>SUBSTRUCTURE
     1 UNK         1 GROUP             0       ****    0 ROOT    
