@<TRIPOS>MOLECULE
3R136
137   139    1
SMALL
USER_CHARGES


@<TRIPOS>ATOM
      1 CA         33.3835   22.8717   -3.4766 C.3       0 UNK        -0.1979 
      2 C          32.7385   24.0368   -2.7402 C.2       0 UNK         0.4864 
      3 O          32.9423   25.1900   -3.1229 O.2       0 UNK        -0.5359 
      4 N          31.9706   23.7443   -1.6837 N.am      1 UNK        -0.4318 
      5 CA         31.2099   24.7232   -0.9025 C.3       1 UNK         0.0824 
      6 C6         30.8366   24.1675    0.4974 C.3       12 UNK        -0.0944 
      7 S7         29.8353   22.6379    0.4594 S.3       12 UNK        -0.2672 
      8 C8         30.4459   21.7647    1.9320 C.3       12 UNK         0.0333 
      9 C9         30.0546   22.4789    3.2177 C.ar      12 UNK        -0.0807 
     10 C10        30.9896   23.2618    3.9020 C.ar      12 UNK        -0.0894 
     11 C11        30.6498   23.8824    5.1074 C.ar      12 UNK        -0.0804 
     12 C12        29.3611   23.7171    5.6246 C.ar      12 UNK        -0.0824 
     13 C13        28.4088   22.9561    4.9378 C.ar      12 UNK        -0.0762 
     14 C14        28.7637   22.3354    3.7365 C.ar      12 UNK        -0.0782 
     15 C15        27.0038   22.7869    5.5040 C.3       12 UNK         0.0230 
     16 S16        25.7760   23.8350    4.6540 S.3       12 UNK        -0.2608 
     17 C17        26.4197   25.5065    4.9962 C.3       12 UNK        -0.0989 
     18 CA         27.0117   26.1501    3.7104 C.3       5 UNK         0.0716 
     19 N          26.0094   26.6257    2.7498 N.am      5 UNK        -0.4135 
     20 C          25.0536   27.5477    2.9565 C.2       4 UNK         0.5031 
     21 O          24.8378   28.0802    4.0458 O.2       4 UNK        -0.5229 
     22 CA         24.1893   27.9873    1.7538 C.3       4 UNK         0.0329 
     23 CB         24.3750   29.4899    1.4769 C.3       4 UNK        -0.2001 
     24 N          24.4665   27.2543    0.5186 N.am      4 UNK        -0.4303 
     25 C          24.1004   25.9928    0.2560 C.2       3 UNK         0.5044 
     26 O          23.3739   25.3239    0.9907 O.2       3 UNK        -0.5152 
     27 CA         24.6709   25.3579   -1.0287 C.3       3 UNK         0.0319 
     28 CB         23.5956   25.3100   -2.1264 C.3       3 UNK        -0.2001 
     29 N          25.8717   26.0208   -1.5608 N.am      3 UNK        -0.4354 
     30 C          27.0382   26.1524   -0.9129 C.2       2 UNK         0.4964 
     31 O          27.2268   25.7755    0.2474 O.2       2 UNK        -0.5047 
     32 CA         28.1520   26.9055   -1.6559 C.3       2 UNK         0.0288 
     33 CB         28.0886   28.4061   -1.3254 C.3       2 UNK        -0.2113 
     34 N          29.4576   26.3881   -1.2569 N.am      2 UNK        -0.4145 
     35 C          29.9645   25.2206   -1.6673 C.2       1 UNK         0.5006 
     36 O          29.4672   24.5387   -2.5699 O.2       1 UNK        -0.5103 
     37 C          28.0289   27.2684    3.9943 C.2       5 UNK         0.5055 
     38 O          28.0516   27.8370    5.0878 O.2       5 UNK        -0.5220 
     39 N          28.8434   27.5672    2.9773 N.am      6 UNK        -0.4450 
     40 CA         29.9633   28.4964    3.0382 C.3       6 UNK         0.0367 
     41 CB         29.4789   29.9220    2.7299 C.3       6 UNK        -0.1929 
     42 C          31.0116   28.0365    2.0223 C.2       6 UNK         0.5070 
     43 O          30.6385   27.5524    0.9526 O.2       6 UNK        -0.5237 
     44 N          32.2945   28.2055    2.3561 N.am      7 UNK        -0.4739 
     45 CA         33.4177   27.9587    1.4484 C.3       7 UNK         0.0276 
     46 CB         34.6602   27.5765    2.2689 C.3       7 UNK        -0.1927 
     47 C          33.6996   29.1910    0.5727 C.2       7 UNK         0.5013 
     48 O          34.0275   29.0406   -0.6044 O.2       7 UNK        -0.5193 
     49 N          33.5455   30.3798    1.1662 N.am      8 UNK        -0.4253 
     50 CA         33.6105   31.6841    0.5149 C.3       8 UNK         0.0242 
     51 CB         34.9775   32.3375    0.8078 C.3       8 UNK        -0.2000 
     52 C          32.3950   32.4821    1.0078 C.2       8 UNK         0.4948 
     53 O          31.2667   32.0725    0.7342 O.2       8 UNK        -0.5275 
     54 N          32.6226   33.5667    1.7623 N.am      9 UNK        -0.4246 
     55 CA         31.5774   34.2997    2.4903 C.3       9 UNK         0.0261 
     56 CB         32.1177   35.6803    2.8975 C.3       9 UNK        -0.1959 
     57 C          31.0644   33.5351    3.7287 C.2       9 UNK         0.5033 
     58 O          29.9471   33.7879    4.1805 O.2       9 UNK        -0.5390 
     59 N          31.8875   32.6160    4.2436 N.am      10 UNK        -0.4215 
     60 CA         31.6173   31.6889    5.3363 C.3       10 UNK         0.0240 
     61 CB         31.9158   32.3753    6.6833 C.3       10 UNK        -0.1982 
     62 C          32.4911   30.4449    5.1111 C.2       10 UNK         0.4970 
     63 O          33.1988   30.3724    4.1007 O.2       10 UNK        -0.4916 
     64 N          32.4269   29.4789    6.0334 N.am      11 UNK        -0.4279 
     65 CA         33.3082   28.2957    6.0572 C.3       11 UNK         0.1003 
     66 C          34.7609   28.5882    6.5386 C.2       11 UNK         0.5709 
     67 N          35.0611   29.7570    7.0931 N.am      11 UNK        -0.7358 
     68 O          35.6364   27.7391    6.3921 O.2       11 UNK        -0.4999 
     69 C69        32.6756   27.1307    6.8614 C.3       12 UNK        -0.0954 
     70 S70        31.2094   26.4447    6.0233 S.3       12 UNK        -0.2268 
     71 C71        31.6866   24.6958    5.8700 C.3       12 UNK         0.0203 
     72 H72        33.1298   21.9130   -3.0242 H         1 UNK         0.0888 
     73 H73        34.4682   22.9750   -3.4660 H         1 UNK         0.0888 
     74 H74        33.0520   22.8548   -4.5145 H         1 UNK         0.0888 
     75 H75        31.8016   22.7792   -1.4384 H         1 UNK         0.3017 
     76 H76        31.8547   25.5916   -0.7485 H         1 UNK         0.0873 
     77 H77        30.2916   24.9112    1.0812 H         1 UNK         0.0745 
     78 H78        31.7550   23.9782    1.0543 H         1 UNK         0.0745 
     79 H79        30.0322   20.7552    1.9379 H         1 UNK         0.0705 
     80 H80        31.5287   21.6474    1.8651 H         1 UNK         0.0705 
     81 H81        31.9888   23.3733    3.5036 H         1 UNK         0.1334 
     82 H82        29.1022   24.1888    6.5628 H         1 UNK         0.1417 
     83 H83        28.0347   21.7385    3.2049 H         1 UNK         0.1562 
     84 H84        26.9891   23.0113    6.5718 H         1 UNK         0.0748 
     85 H85        26.6992   21.7434    5.4112 H         1 UNK         0.0748 
     86 H86        27.1722   25.4384    5.7824 H         1 UNK         0.0940 
     87 H87        25.6225   26.1129    5.4252 H         1 UNK         0.0940 
     88 H88        27.5776   25.3733    3.1914 H         1 UNK         0.0703 
     89 H89        26.1425   26.2775    1.8054 H         1 UNK         0.3081 
     90 H90        23.1462   27.8155    2.0276 H         1 UNK         0.0719 
     91 H91        24.1219   30.0854    2.3552 H         1 UNK         0.0809 
     92 H92        25.4060   29.7267    1.2101 H         1 UNK         0.0809 
     93 H93        23.7303   29.8278    0.6653 H         1 UNK         0.0809 
     94 H94        25.0547   27.7190   -0.1571 H         1 UNK         0.2990 
     95 H95        24.9503   24.3322   -0.7786 H         1 UNK         0.0690 
     96 H96        23.9490   24.7724   -3.0066 H         1 UNK         0.0788 
     97 H97        23.2942   26.3103   -2.4402 H         1 UNK         0.0788 
     98 H98        22.7001   24.7955   -1.7746 H         1 UNK         0.0788 
     99 H99        25.7989   26.3827   -2.5014 H         1 UNK         0.2993 
    100 H100       28.0293   26.7686   -2.7326 H         1 UNK         0.0949 
    101 H101       28.1849   28.5878   -0.2538 H         1 UNK         0.0767 
    102 H102       28.8855   28.9554   -1.8274 H         1 UNK         0.0767 
    103 H103       27.1423   28.8416   -1.6485 H         1 UNK         0.0767 
    104 H104       29.9069   26.8612   -0.4715 H         1 UNK         0.3013 
    105 H105       28.7763   27.0509    2.1078 H         1 UNK         0.3121 
    106 H106       30.4026   28.4694    4.0364 H         1 UNK         0.0774 
    107 H107       29.0336   29.9913    1.7367 H         1 UNK         0.0815 
    108 H108       28.7380   30.2582    3.4552 H         1 UNK         0.0815 
    109 H109       30.3074   30.6282    2.7617 H         1 UNK         0.0815 
    110 H110       32.5210   28.6618    3.2311 H         1 UNK         0.2987 
    111 H111       33.1764   27.1234    0.7872 H         1 UNK         0.0949 
    112 H112       34.4808   26.6822    2.8660 H         1 UNK         0.0806 
    113 H113       35.5072   27.3646    1.6149 H         1 UNK         0.0806 
    114 H114       34.9636   28.3766    2.9456 H         1 UNK         0.0806 
    115 H115       33.2820   30.3874    2.1464 H         1 UNK         0.3010 
    116 H116       33.4980   31.5743   -0.5659 H         1 UNK         0.0829 
    117 H117       35.0510   33.3270    0.3542 H         1 UNK         0.0813 
    118 H118       35.7871   31.7386    0.3900 H         1 UNK         0.0813 
    119 H119       35.1679   32.4371    1.8773 H         1 UNK         0.0813 
    120 H120       33.5775   33.8582    1.9165 H         1 UNK         0.3038 
    121 H121       30.7274   34.4487    1.8207 H         1 UNK         0.0769 
    122 H122       32.4253   36.2592    2.0264 H         1 UNK         0.0811 
    123 H123       32.9740   35.5992    3.5682 H         1 UNK         0.0811 
    124 H124       31.3526   36.2603    3.4157 H         1 UNK         0.0811 
    125 H125       32.7668   32.4382    3.7761 H         1 UNK         0.3204 
    126 H126       30.5706   31.3797    5.3008 H         1 UNK         0.0748 
    127 H127       31.6799   31.7257    7.5267 H         1 UNK         0.0771 
    128 H128       32.9656   32.6593    6.7672 H         1 UNK         0.0771 
    129 H129       31.3188   33.2795    6.8046 H         1 UNK         0.0771 
    130 H130       31.8093   29.5857    6.8247 H         1 UNK         0.2980 
    131 H131       33.4228   27.9465    5.0300 H         1 UNK         0.0545 
    132 H132       36.0081   29.9289    7.3919 H         1 UNK         0.3459 
    133 H133       34.3554   30.4617    7.2260 H         1 UNK         0.3459 
    134 H134       32.3858   27.4637    7.8593 H         1 UNK         0.0616 
    135 H135       33.3972   26.3255    7.0123 H         1 UNK         0.0616 
    136 H136       31.8145   24.2698    6.8661 H         1 UNK         0.0634 
    137 H137       32.6584   24.6371    5.3771 H         1 UNK         0.0634 
@<TRIPOS>BOND
     1    1    2 1    
     2    1   72 1    
     3    1   73 1    
     4    1   74 1    
     5    2    3 2    
     6    2    4 am   BACKBONE|DICT|INTERRES
     7    4    5 1    
     8    4   75 1    
     9    5    6 1    
    10    5   35 1    
    11    5   76 1    
    12    6    7 1    
    13    6   77 1    
    14    6   78 1    
    15    7    8 1    
    16    8    9 1    
    17    8   79 1    
    18    8   80 1    
    19    9   10 ar   
    20    9   14 ar   
    21   10   11 ar   
    22   10   81 1    
    23   11   12 ar   
    24   11   71 1    
    25   12   13 ar   
    26   12   82 1    
    27   13   14 ar   
    28   13   15 1    
    29   14   83 1    
    30   15   16 1    
    31   15   84 1    
    32   15   85 1    
    33   16   17 1    
    34   17   18 1    
    35   17   86 1    
    36   17   87 1    
    37   18   19 1    
    38   18   37 1    
    39   18   88 1    
    40   19   20 am   BACKBONE|DICT|INTERRES
    41   19   89 1    
    42   20   21 2    
    43   20   22 1    
    44   22   23 1    
    45   22   24 1    
    46   22   90 1    
    47   23   91 1    
    48   23   92 1    
    49   23   93 1    
    50   24   25 am   BACKBONE|DICT|INTERRES
    51   24   94 1    
    52   25   26 2    
    53   25   27 1    
    54   27   28 1    
    55   27   29 1    
    56   27   95 1    
    57   28   96 1    
    58   28   97 1    
    59   28   98 1    
    60   29   30 am   BACKBONE|DICT|INTERRES
    61   29   99 1    
    62   30   31 2    
    63   30   32 1    
    64   32   33 1    
    65   32   34 1    
    66   32  100 1    
    67   33  101 1    
    68   33  102 1    
    69   33  103 1    
    70   34   35 am   BACKBONE|DICT|INTERRES
    71   34  104 1    
    72   35   36 2    
    73   37   38 2    
    74   37   39 am   BACKBONE|DICT|INTERRES
    75   39   40 1    
    76   39  105 1    
    77   40   41 1    
    78   40   42 1    
    79   40  106 1    
    80   41  107 1    
    81   41  108 1    
    82   41  109 1    
    83   42   43 2    
    84   42   44 am   BACKBONE|DICT|INTERRES
    85   44   45 1    
    86   44  110 1    
    87   45   46 1    
    88   45   47 1    
    89   45  111 1    
    90   46  112 1    
    91   46  113 1    
    92   46  114 1    
    93   47   48 2    
    94   47   49 am   BACKBONE|DICT|INTERRES
    95   49   50 1    
    96   49  115 1    
    97   50   51 1    
    98   50   52 1    
    99   50  116 1    
   100   51  117 1    
   101   51  118 1    
   102   51  119 1    
   103   52   53 2    
   104   52   54 am   BACKBONE|DICT|INTERRES
   105   54   55 1    
   106   54  120 1    
   107   55   56 1    
   108   55   57 1    
   109   55  121 1    
   110   56  122 1    
   111   56  123 1    
   112   56  124 1    
   113   57   58 2    
   114   57   59 am   BACKBONE|DICT|INTERRES
   115   59   60 1    
   116   59  125 1    
   117   60   61 1    
   118   60   62 1    
   119   60  126 1    
   120   61  127 1    
   121   61  128 1    
   122   61  129 1    
   123   62   63 2    
   124   62   64 am   BACKBONE|DICT|INTERRES
   125   64   65 1    
   126   64  130 1    
   127   65   66 1    
   128   65   69 1    
   129   65  131 1    
   130   66   67 am   BACKBONE|DICT|INTERRES
   131   66   68 2    
   132   67  132 1    
   133   67  133 1    
   134   69   70 1    
   135   69  134 1    
   136   69  135 1    
   137   70   71 1    
   138   71  136 1    
   139   71  137 1    
@<TRIPOS>SUBSTRUCTURE
     1 UNK         1 GROUP             0       ****    0 ROOT    
