@<TRIPOS>MOLECULE
3R136
137   139    1
SMALL
USER_CHARGES


@<TRIPOS>ATOM
      1 CA         28.0568   22.4243   -1.4692 C.3       0 UNK        -0.1979 
      2 C          28.4993   23.8295   -1.8478 C.2       0 UNK         0.4864 
      3 O          28.4688   24.1885   -3.0257 O.2       0 UNK        -0.5359 
      4 N          28.8809   24.6380   -0.8535 N.am      1 UNK        -0.4318 
      5 CA         29.2603   26.0432   -0.9942 C.3       1 UNK         0.0824 
      6 C6         30.1890   26.4965    0.1584 C.3       12 UNK        -0.0944 
      7 S7         31.8788   25.8535   -0.0588 S.3       12 UNK        -0.2672 
      8 C8         31.8624   24.3466    0.9661 C.3       12 UNK         0.0333 
      9 C9         32.0514   24.6385    2.4485 C.ar      12 UNK        -0.0807 
     10 C10        33.2241   25.2530    2.8955 C.ar      12 UNK        -0.0894 
     11 C11        33.4441   25.4857    4.2558 C.ar      12 UNK        -0.0804 
     12 C12        32.4644   25.0844    5.1753 C.ar      12 UNK        -0.0824 
     13 C13        31.2815   24.4704    4.7475 C.ar      12 UNK        -0.0762 
     14 C14        31.0834   24.2491    3.3784 C.ar      12 UNK        -0.0782 
     15 C15        30.2719   24.0052    5.7970 C.3       12 UNK         0.0230 
     16 S16        28.5267   24.0294    5.2624 S.3       12 UNK        -0.2608 
     17 C17        28.1705   25.8175    5.1665 C.3       12 UNK        -0.0989 
     18 CA         27.7564   26.2830    3.7433 C.3       5 UNK         0.0716 
     19 N          26.6017   25.5472    3.2240 N.am      5 UNK        -0.4135 
     20 C          26.6156   24.6797    2.2078 C.2       4 UNK         0.5031 
     21 O          27.6401   24.3081    1.6321 O.2       4 UNK        -0.5229 
     22 CA         25.2557   24.1526    1.7271 C.3       4 UNK         0.0329 
     23 CB         24.0356   24.7612    2.4602 C.3       4 UNK        -0.2001 
     24 N          25.1530   24.3929    0.2893 N.am      4 UNK        -0.4303 
     25 C          24.3342   23.7425   -0.5459 C.2       3 UNK         0.5044 
     26 O          23.5786   22.8402   -0.1812 O.2       3 UNK        -0.5152 
     27 CA         24.3673   24.1197   -2.0422 C.3       3 UNK         0.0319 
     28 CB         22.9477   24.2822   -2.6266 C.3       3 UNK        -0.2001 
     29 N          25.2139   25.2715   -2.3862 N.am      3 UNK        -0.4354 
     30 C          25.0299   26.5666   -2.0805 C.2       2 UNK         0.4964 
     31 O          24.1045   26.9961   -1.3914 O.2       2 UNK        -0.5047 
     32 CA         26.1103   27.5194   -2.6286 C.3       2 UNK         0.0288 
     33 CB         25.9099   29.0013   -2.2487 C.3       2 UNK        -0.2113 
     34 N          27.4568   27.0452   -2.2879 N.am      2 UNK        -0.4145 
     35 C          27.9605   26.8598   -1.0581 C.2       1 UNK         0.5006 
     36 O          27.4171   27.2316   -0.0136 O.2       1 UNK        -0.5103 
     37 C          27.4257   27.7910    3.6936 C.2       5 UNK         0.5055 
     38 O          27.7752   28.5292    4.6149 O.2       5 UNK        -0.5220 
     39 N          26.7125   28.2233    2.6436 N.am      6 UNK        -0.4450 
     40 CA         26.2022   29.5873    2.4940 C.3       6 UNK         0.0367 
     41 CB         24.9043   29.5589    1.6709 C.3       6 UNK        -0.1929 
     42 C          27.2408   30.5355    1.8770 C.2       6 UNK         0.5070 
     43 O          27.3060   31.6972    2.2778 O.2       6 UNK        -0.5237 
     44 N          28.0560   30.0218    0.9462 N.am      7 UNK        -0.4739 
     45 CA         29.1713   30.7471    0.3213 C.3       7 UNK         0.0276 
     46 CB         29.1506   30.5001   -1.1972 C.3       7 UNK        -0.1927 
     47 C          30.5303   30.3640    0.9371 C.2       7 UNK         0.5013 
     48 O          31.5711   30.6408    0.3385 O.2       7 UNK        -0.5193 
     49 N          30.5097   29.7179    2.1102 N.am      8 UNK        -0.4253 
     50 CA         31.6632   29.1680    2.8255 C.3       8 UNK         0.0242 
     51 CB         31.1482   28.1304    3.8348 C.3       8 UNK        -0.2000 
     52 C          32.5426   30.2407    3.4994 C.2       8 UNK         0.4948 
     53 O          32.8044   30.1544    4.6999 O.2       8 UNK        -0.5275 
     54 N          33.0061   31.2262    2.7190 N.am      9 UNK        -0.4246 
     55 CA         33.8220   32.3627    3.1665 C.3       9 UNK         0.0261 
     56 CB         34.0983   33.2925    1.9744 C.3       9 UNK        -0.1959 
     57 C          35.1385   31.9621    3.8576 C.2       9 UNK         0.5033 
     58 O          35.5604   32.6404    4.7950 O.2       9 UNK        -0.5390 
     59 N          35.7323   30.8421    3.4214 N.am      10 UNK        -0.4215 
     60 CA         36.9219   30.2277    4.0192 C.3       10 UNK         0.0240 
     61 CB         37.4238   29.1073    3.0927 C.3       10 UNK        -0.1982 
     62 C          36.7037   29.6838    5.4458 C.2       10 UNK         0.4970 
     63 O          37.6853   29.5125    6.1697 O.2       10 UNK        -0.4916 
     64 N          35.4447   29.4236    5.8191 N.am      11 UNK        -0.4279 
     65 CA         35.0227   28.9472    7.1434 C.3       11 UNK         0.1003 
     66 C          34.3239   30.0587    7.9815 C.2       11 UNK         0.5709 
     67 N          34.3090   31.3163    7.5512 N.am      11 UNK        -0.7358 
     68 O          33.8103   29.7849    9.0638 O.2       11 UNK        -0.4999 
     69 C69        34.1579   27.6616    7.0208 C.3       12 UNK        -0.0954 
     70 S70        35.1332   26.2303    6.4420 S.3       12 UNK        -0.2268 
     71 C71        34.7446   26.1873    4.6576 C.3       12 UNK         0.0203 
     72 H72        27.9942   22.2966   -0.3883 H         1 UNK         0.0888 
     73 H73        28.7638   21.6923   -1.8585 H         1 UNK         0.0888 
     74 H74        27.0761   22.2092   -1.8915 H         1 UNK         0.0888 
     75 H75        28.7297   24.3361    0.1070 H         1 UNK         0.3017 
     76 H76        29.7954   26.1831   -1.9365 H         1 UNK         0.0873 
     77 H77        29.7967   26.1995    1.1309 H         1 UNK         0.0745 
     78 H78        30.2685   27.5829    0.1782 H         1 UNK         0.0745 
     79 H79        30.9418   23.7900    0.7884 H         1 UNK         0.0705 
     80 H80        32.6751   23.6979    0.6365 H         1 UNK         0.0705 
     81 H81        33.9727   25.5512    2.1737 H         1 UNK         0.1334 
     82 H82        32.6123   25.2461    6.2331 H         1 UNK         0.1417 
     83 H83        30.1830   23.7578    3.0347 H         1 UNK         0.1562 
     84 H84        30.3617   24.6046    6.7045 H         1 UNK         0.0748 
     85 H85        30.5268   22.9832    6.0800 H         1 UNK         0.0748 
     86 H86        29.0477   26.3733    5.5036 H         1 UNK         0.0940 
     87 H87        27.3798   26.0385    5.8859 H         1 UNK         0.0940 
     88 H88        28.6114   26.1382    3.0835 H         1 UNK         0.0703 
     89 H89        25.7103   25.7922    3.6308 H         1 UNK         0.3081 
     90 H90        25.2656   23.0750    1.9030 H         1 UNK         0.0719 
     91 H91        23.9588   25.8377    2.2997 H         1 UNK         0.0809 
     92 H92        23.1041   24.3155    2.1111 H         1 UNK         0.0809 
     93 H93        24.0798   24.5769    3.5344 H         1 UNK         0.0809 
     94 H94        25.7667   25.1057   -0.0811 H         1 UNK         0.2990 
     95 H95        24.8239   23.2660   -2.5448 H         1 UNK         0.0690 
     96 H96        22.9799   24.5142   -3.6911 H         1 UNK         0.0788 
     97 H97        22.3907   25.0747   -2.1260 H         1 UNK         0.0788 
     98 H98        22.3699   23.3637   -2.5158 H         1 UNK         0.0788 
     99 H99        26.0323   25.0413   -2.9352 H         1 UNK         0.2993 
    100 H100       26.0243   27.4588   -3.7149 H         1 UNK         0.0949 
    101 H101       24.8841   29.3228   -2.4333 H         1 UNK         0.0767 
    102 H102       26.1315   29.1960   -1.2021 H         1 UNK         0.0767 
    103 H103       26.5553   29.6419   -2.8484 H         1 UNK         0.0767 
    104 H104       27.9835   26.6607   -3.0621 H         1 UNK         0.3013 
    105 H105       26.5617   27.5934    1.8629 H         1 UNK         0.3121 
    106 H106       25.9533   29.9842    3.4810 H         1 UNK         0.0774 
    107 H107       24.1040   29.0653    2.2221 H         1 UNK         0.0815 
    108 H108       25.0275   29.0255    0.7296 H         1 UNK         0.0815 
    109 H109       24.5607   30.5678    1.4380 H         1 UNK         0.0815 
    110 H110       27.9183   29.0554    0.6659 H         1 UNK         0.2987 
    111 H111       29.0556   31.8216    0.4791 H         1 UNK         0.0949 
    112 H112       29.2992   29.4495   -1.4428 H         1 UNK         0.0806 
    113 H113       28.2057   30.8224   -1.6323 H         1 UNK         0.0806 
    114 H114       29.9375   31.0648   -1.6991 H         1 UNK         0.0806 
    115 H115       29.6103   29.5897    2.5503 H         1 UNK         0.3010 
    116 H116       32.2971   28.6445    2.1062 H         1 UNK         0.0829 
    117 H117       30.6665   27.2928    3.3333 H         1 UNK         0.0813 
    118 H118       31.9662   27.7217    4.4225 H         1 UNK         0.0813 
    119 H119       30.4421   28.5675    4.5407 H         1 UNK         0.0813 
    120 H120       32.7207   31.2117    1.7425 H         1 UNK         0.3038 
    121 H121       33.2294   32.9142    3.8993 H         1 UNK         0.0769 
    122 H122       34.6561   32.7848    1.1865 H         1 UNK         0.0811 
    123 H123       34.6838   34.1599    2.2826 H         1 UNK         0.0811 
    124 H124       33.1711   33.6672    1.5403 H         1 UNK         0.0811 
    125 H125       35.3105   30.3567    2.6430 H         1 UNK         0.3204 
    126 H126       37.6968   30.9947    4.0813 H         1 UNK         0.0748 
    127 H127       37.6711   29.4910    2.1026 H         1 UNK         0.0771 
    128 H128       38.3275   28.6449    3.4926 H         1 UNK         0.0771 
    129 H129       36.6809   28.3179    2.9724 H         1 UNK         0.0771 
    130 H130       34.6785   29.6541    5.1952 H         1 UNK         0.2980 
    131 H131       35.9045   28.6857    7.7306 H         1 UNK         0.0545 
    132 H132       33.8591   32.0213    8.1127 H         1 UNK         0.3459 
    133 H133       34.7373   31.5692    6.6720 H         1 UNK         0.3459 
    134 H134       33.7412   27.3807    7.9894 H         1 UNK         0.0616 
    135 H135       33.3048   27.8287    6.3623 H         1 UNK         0.0616 
    136 H136       35.5751   25.6853    4.1592 H         1 UNK         0.0634 
    137 H137       34.7278   27.2061    4.2700 H         1 UNK         0.0634 
@<TRIPOS>BOND
     1    1    2 1    
     2    1   72 1    
     3    1   73 1    
     4    1   74 1    
     5    2    3 2    
     6    2    4 am   BACKBONE|DICT|INTERRES
     7    4    5 1    
     8    4   75 1    
     9    5    6 1    
    10    5   35 1    
    11    5   76 1    
    12    6    7 1    
    13    6   77 1    
    14    6   78 1    
    15    7    8 1    
    16    8    9 1    
    17    8   79 1    
    18    8   80 1    
    19    9   10 ar   
    20    9   14 ar   
    21   10   11 ar   
    22   10   81 1    
    23   11   12 ar   
    24   11   71 1    
    25   12   13 ar   
    26   12   82 1    
    27   13   14 ar   
    28   13   15 1    
    29   14   83 1    
    30   15   16 1    
    31   15   84 1    
    32   15   85 1    
    33   16   17 1    
    34   17   18 1    
    35   17   86 1    
    36   17   87 1    
    37   18   19 1    
    38   18   37 1    
    39   18   88 1    
    40   19   20 am   BACKBONE|DICT|INTERRES
    41   19   89 1    
    42   20   21 2    
    43   20   22 1    
    44   22   23 1    
    45   22   24 1    
    46   22   90 1    
    47   23   91 1    
    48   23   92 1    
    49   23   93 1    
    50   24   25 am   BACKBONE|DICT|INTERRES
    51   24   94 1    
    52   25   26 2    
    53   25   27 1    
    54   27   28 1    
    55   27   29 1    
    56   27   95 1    
    57   28   96 1    
    58   28   97 1    
    59   28   98 1    
    60   29   30 am   BACKBONE|DICT|INTERRES
    61   29   99 1    
    62   30   31 2    
    63   30   32 1    
    64   32   33 1    
    65   32   34 1    
    66   32  100 1    
    67   33  101 1    
    68   33  102 1    
    69   33  103 1    
    70   34   35 am   BACKBONE|DICT|INTERRES
    71   34  104 1    
    72   35   36 2    
    73   37   38 2    
    74   37   39 am   BACKBONE|DICT|INTERRES
    75   39   40 1    
    76   39  105 1    
    77   40   41 1    
    78   40   42 1    
    79   40  106 1    
    80   41  107 1    
    81   41  108 1    
    82   41  109 1    
    83   42   43 2    
    84   42   44 am   BACKBONE|DICT|INTERRES
    85   44   45 1    
    86   44  110 1    
    87   45   46 1    
    88   45   47 1    
    89   45  111 1    
    90   46  112 1    
    91   46  113 1    
    92   46  114 1    
    93   47   48 2    
    94   47   49 am   BACKBONE|DICT|INTERRES
    95   49   50 1    
    96   49  115 1    
    97   50   51 1    
    98   50   52 1    
    99   50  116 1    
   100   51  117 1    
   101   51  118 1    
   102   51  119 1    
   103   52   53 2    
   104   52   54 am   BACKBONE|DICT|INTERRES
   105   54   55 1    
   106   54  120 1    
   107   55   56 1    
   108   55   57 1    
   109   55  121 1    
   110   56  122 1    
   111   56  123 1    
   112   56  124 1    
   113   57   58 2    
   114   57   59 am   BACKBONE|DICT|INTERRES
   115   59   60 1    
   116   59  125 1    
   117   60   61 1    
   118   60   62 1    
   119   60  126 1    
   120   61  127 1    
   121   61  128 1    
   122   61  129 1    
   123   62   63 2    
   124   62   64 am   BACKBONE|DICT|INTERRES
   125   64   65 1    
   126   64  130 1    
   127   65   66 1    
   128   65   69 1    
   129   65  131 1    
   130   66   67 am   BACKBONE|DICT|INTERRES
   131   66   68 2    
   132   67  132 1    
   133   67  133 1    
   134   69   70 1    
   135   69  134 1    
   136   69  135 1    
   137   70   71 1    
   138   71  136 1    
   139   71  137 1    
@<TRIPOS>SUBSTRUCTURE
     1 UNK         1 GROUP             0       ****    0 ROOT    
