@<TRIPOS>MOLECULE
3R136
137   139    1
SMALL
USER_CHARGES


@<TRIPOS>ATOM
      1 CA         34.0960   26.5644   -1.0947 C.3       0 UNK        -0.1979 
      2 C          32.6202   26.8814   -0.9076 C.2       0 UNK         0.4864 
      3 O          32.0853   27.7366   -1.6123 O.2       0 UNK        -0.5359 
      4 N          31.9555   26.1886    0.0283 N.am      1 UNK        -0.4318 
      5 CA         30.5418   26.3822    0.3758 C.3       1 UNK         0.0824 
      6 C6         30.1982   25.7677    1.7530 C.3       12 UNK        -0.0944 
      7 S7         30.5606   23.9794    1.8741 S.3       12 UNK        -0.2672 
      8 C8         29.0913   23.3521    2.7579 C.3       12 UNK         0.0333 
      9 C9         28.8217   24.0790    4.0723 C.ar      12 UNK        -0.0807 
     10 C10        29.8547   24.3167    4.9859 C.ar      12 UNK        -0.0894 
     11 C11        29.6119   25.0166    6.1708 C.ar      12 UNK        -0.0804 
     12 C12        28.3202   25.4733    6.4466 C.ar      12 UNK        -0.0824 
     13 C13        27.2750   25.2304    5.5493 C.ar      12 UNK        -0.0762 
     14 C14        27.5290   24.5209    4.3718 C.ar      12 UNK        -0.0782 
     15 C15        25.8749   25.7399    5.8560 C.3       12 UNK         0.0230 
     16 S16        25.6408   27.4420    5.2513 S.3       12 UNK        -0.2608 
     17 C17        25.0394   27.1920    3.5422 C.3       12 UNK        -0.0989 
     18 CA         26.1616   27.2376    2.4668 C.3       5 UNK         0.0716 
     19 N          25.8172   26.5150    1.2412 N.am      5 UNK        -0.4135 
     20 C          24.8035   26.7946    0.4088 C.2       4 UNK         0.5031 
     21 O          23.9586   27.6648    0.6217 O.2       4 UNK        -0.5229 
     22 CA         24.7274   25.9855   -0.8969 C.3       4 UNK         0.0329 
     23 CB         24.9661   26.9070   -2.1058 C.3       4 UNK        -0.2001 
     24 N          25.7225   24.9133   -0.9388 N.am      4 UNK        -0.4303 
     25 C          25.4972   23.6157   -0.6907 C.2       3 UNK         0.5044 
     26 O          24.3970   23.1691   -0.3641 O.2       3 UNK        -0.5152 
     27 CA         26.7049   22.6540   -0.7942 C.3       3 UNK         0.0319 
     28 CB         26.3443   21.3440   -1.5259 C.3       3 UNK        -0.2001 
     29 N          27.9145   23.2687   -1.3660 N.am      3 UNK        -0.4354 
     30 C          28.0696   23.7741   -2.6012 C.2       2 UNK         0.4964 
     31 O          27.2329   23.6561   -3.4970 O.2       2 UNK        -0.5047 
     32 CA         29.3481   24.5949   -2.8676 C.3       2 UNK         0.0288 
     33 CB         29.0852   25.7668   -3.8381 C.3       2 UNK        -0.2113 
     34 N          30.0275   25.0931   -1.6616 N.am      2 UNK        -0.4145 
     35 C          29.5505   25.9200   -0.7144 C.2       1 UNK         0.5006 
     36 O          28.3779   26.3033   -0.6503 O.2       1 UNK        -0.5103 
     37 C          26.7090   28.6464    2.1517 C.2       5 UNK         0.5055 
     38 O          26.4127   29.6087    2.8629 O.2       5 UNK        -0.5220 
     39 N          27.5629   28.7427    1.1188 N.am      6 UNK        -0.4450 
     40 CA         28.3847   29.9239    0.8281 C.3       6 UNK         0.0367 
     41 CB         28.7879   29.9143   -0.6586 C.3       6 UNK        -0.1929 
     42 C          29.5979   29.9813    1.7808 C.2       6 UNK         0.5070 
     43 O          30.7460   29.9633    1.3351 O.2       6 UNK        -0.5237 
     44 N          29.3123   30.0001    3.0904 N.am      7 UNK        -0.4739 
     45 CA         30.2591   29.8271    4.1959 C.3       7 UNK         0.0276 
     46 CB         29.4966   29.8716    5.5285 C.3       7 UNK        -0.1927 
     47 C          31.4247   30.8248    4.2068 C.2       7 UNK         0.5013 
     48 O          32.5162   30.4587    4.6380 O.2       7 UNK        -0.5193 
     49 N          31.2062   32.0368    3.6789 N.am      8 UNK        -0.4253 
     50 CA         32.2248   33.0786    3.5062 C.3       8 UNK         0.0242 
     51 CB         31.5613   34.3390    2.9278 C.3       8 UNK        -0.2000 
     52 C          33.4278   32.6572    2.6371 C.2       8 UNK         0.4948 
     53 O          34.5065   33.2294    2.7966 O.2       8 UNK        -0.5275 
     54 N          33.2360   31.6638    1.7573 N.am      9 UNK        -0.4246 
     55 CA         34.2850   31.0647    0.9319 C.3       9 UNK         0.0261 
     56 CB         33.6898   30.7465   -0.4509 C.3       9 UNK        -0.1959 
     57 C          34.9037   29.8024    1.5672 C.2       9 UNK         0.5033 
     58 O          35.7616   29.1879    0.9307 O.2       9 UNK        -0.5390 
     59 N          34.4692   29.4125    2.7742 N.am      10 UNK        -0.4215 
     60 CA         34.8682   28.1777    3.4450 C.3       10 UNK         0.0240 
     61 CB         33.8756   27.0539    3.0726 C.3       10 UNK        -0.1982 
     62 C          35.0133   28.4223    4.9559 C.2       10 UNK         0.4970 
     63 O          35.9815   29.0599    5.3714 O.2       10 UNK        -0.4916 
     64 N          34.0776   27.8806    5.7432 N.am      11 UNK        -0.4279 
     65 CA         34.0488   27.8775    7.2137 C.3       11 UNK         0.1003 
     66 C          33.8902   29.2565    7.9192 C.2       11 UNK         0.5709 
     67 N          33.5045   30.3259    7.2383 N.am      11 UNK        -0.7358 
     68 O          34.1417   29.3583    9.1180 O.2       11 UNK        -0.4999 
     69 C69        33.0266   26.8332    7.7436 C.3       12 UNK        -0.0954 
     70 S70        31.3738   26.9798    6.9749 S.3       12 UNK        -0.2268 
     71 C71        30.7491   25.2809    7.1453 C.3       12 UNK         0.0203 
     72 H72        34.2772   26.2008   -2.1058 H         1 UNK         0.0888 
     73 H73        34.6924   27.4639   -0.9446 H         1 UNK         0.0888 
     74 H74        34.4446   25.8073   -0.3926 H         1 UNK         0.0888 
     75 H75        32.4351   25.4788    0.5647 H         1 UNK         0.3017 
     76 H76        30.3956   27.4579    0.4663 H         1 UNK         0.0873 
     77 H77        29.1519   25.9527    1.9992 H         1 UNK         0.0745 
     78 H78        30.7680   26.2749    2.5327 H         1 UNK         0.0745 
     79 H79        28.2310   23.4305    2.0923 H         1 UNK         0.0705 
     80 H80        29.2295   22.2899    2.9634 H         1 UNK         0.0705 
     81 H81        30.8550   23.9703    4.7644 H         1 UNK         0.1334 
     82 H82        28.1314   26.0263    7.3569 H         1 UNK         0.1417 
     83 H83        26.7193   24.3306    3.6806 H         1 UNK         0.1562 
     84 H84        25.7133   25.7311    6.9351 H         1 UNK         0.0748 
     85 H85        25.1183   25.0753    5.4365 H         1 UNK         0.0748 
     86 H86        24.2760   27.9432    3.3310 H         1 UNK         0.0940 
     87 H87        24.5191   26.2344    3.4987 H         1 UNK         0.0940 
     88 H88        27.0184   26.7024    2.8722 H         1 UNK         0.0703 
     89 H89        26.4643   25.7973    0.9505 H         1 UNK         0.3081 
     90 H90        23.7208   25.5688   -0.9710 H         1 UNK         0.0719 
     91 H91        24.2246   27.7062   -2.1437 H         1 UNK         0.0809 
     92 H92        25.9509   27.3757   -2.0678 H         1 UNK         0.0809 
     93 H93        24.8950   26.3554   -3.0435 H         1 UNK         0.0809 
     94 H94        26.6659   25.1980   -1.1785 H         1 UNK         0.2990 
     95 H95        26.9616   22.3905    0.2324 H         1 UNK         0.0690 
     96 H96        27.2012   20.6729   -1.5840 H         1 UNK         0.0788 
     97 H97        25.9914   21.5273   -2.5410 H         1 UNK         0.0788 
     98 H98        25.5514   20.8091   -1.0017 H         1 UNK         0.0788 
     99 H99        28.6753   23.4116   -0.7164 H         1 UNK         0.2993 
    100 H100       30.0457   23.9106   -3.3530 H         1 UNK         0.0949 
    101 H101       28.3372   26.4563   -3.4445 H         1 UNK         0.0767 
    102 H102       29.9958   26.3355   -4.0281 H         1 UNK         0.0767 
    103 H103       28.7230   25.4088   -4.8027 H         1 UNK         0.0767 
    104 H104       30.9969   24.8219   -1.5734 H         1 UNK         0.3013 
    105 H105       27.7490   27.9182    0.5588 H         1 UNK         0.3121 
    106 H106       27.7918   30.8245    1.0017 H         1 UNK         0.0774 
    107 H107       29.3665   30.8044   -0.9090 H         1 UNK         0.0815 
    108 H108       29.4004   29.0508   -0.9165 H         1 UNK         0.0815 
    109 H109       27.9113   29.9058   -1.3063 H         1 UNK         0.0815 
    110 H110       28.3275   30.0152    3.3392 H         1 UNK         0.2987 
    111 H111       30.6975   28.8324    4.0905 H         1 UNK         0.0949 
    112 H112       28.7692   29.0616    5.5955 H         1 UNK         0.0806 
    113 H113       30.1778   29.7619    6.3738 H         1 UNK         0.0806 
    114 H114       28.9646   30.8146    5.6591 H         1 UNK         0.0806 
    115 H115       30.2797   32.2393    3.3327 H         1 UNK         0.3010 
    116 H116       32.6148   33.3188    4.4976 H         1 UNK         0.0829 
    117 H117       31.1263   34.1509    1.9453 H         1 UNK         0.0813 
    118 H118       32.2876   35.1451    2.8134 H         1 UNK         0.0813 
    119 H119       30.7714   34.7091    3.5817 H         1 UNK         0.0813 
    120 H120       32.3198   31.2279    1.6942 H         1 UNK         0.3038 
    121 H121       35.0978   31.7797    0.7889 H         1 UNK         0.0769 
    122 H122       33.3038   31.6448   -0.9325 H         1 UNK         0.0811 
    123 H123       32.8717   30.0294   -0.3789 H         1 UNK         0.0811 
    124 H124       34.4396   30.3195   -1.1181 H         1 UNK         0.0811 
    125 H125       33.8046   29.9899    3.2836 H         1 UNK         0.3204 
    126 H126       35.8598   27.8755    3.1013 H         1 UNK         0.0748 
    127 H127       32.8446   27.3266    3.3008 H         1 UNK         0.0771 
    128 H128       33.9283   26.8366    2.0070 H         1 UNK         0.0771 
    129 H129       34.1060   26.1247    3.5959 H         1 UNK         0.0771 
    130 H130       33.2963   27.4150    5.3073 H         1 UNK         0.2980 
    131 H131       35.0356   27.5292    7.5242 H         1 UNK         0.0545 
    132 H132       33.2605   30.2601    6.2525 H         1 UNK         0.3459 
    133 H133       33.4208   31.2073    7.7166 H         1 UNK         0.3459 
    134 H134       32.9211   26.8870    8.8288 H         1 UNK         0.0616 
    135 H135       33.4151   25.8351    7.5373 H         1 UNK         0.0616 
    136 H136       31.5572   24.5688    6.9724 H         1 UNK         0.0634 
    137 H137       30.4106   25.1223    8.1702 H         1 UNK         0.0634 
@<TRIPOS>BOND
     1    1    2 1    
     2    1   72 1    
     3    1   73 1    
     4    1   74 1    
     5    2    3 2    
     6    2    4 am   BACKBONE|DICT|INTERRES
     7    4    5 1    
     8    4   75 1    
     9    5    6 1    
    10    5   35 1    
    11    5   76 1    
    12    6    7 1    
    13    6   77 1    
    14    6   78 1    
    15    7    8 1    
    16    8    9 1    
    17    8   79 1    
    18    8   80 1    
    19    9   10 ar   
    20    9   14 ar   
    21   10   11 ar   
    22   10   81 1    
    23   11   12 ar   
    24   11   71 1    
    25   12   13 ar   
    26   12   82 1    
    27   13   14 ar   
    28   13   15 1    
    29   14   83 1    
    30   15   16 1    
    31   15   84 1    
    32   15   85 1    
    33   16   17 1    
    34   17   18 1    
    35   17   86 1    
    36   17   87 1    
    37   18   19 1    
    38   18   37 1    
    39   18   88 1    
    40   19   20 am   BACKBONE|DICT|INTERRES
    41   19   89 1    
    42   20   21 2    
    43   20   22 1    
    44   22   23 1    
    45   22   24 1    
    46   22   90 1    
    47   23   91 1    
    48   23   92 1    
    49   23   93 1    
    50   24   25 am   BACKBONE|DICT|INTERRES
    51   24   94 1    
    52   25   26 2    
    53   25   27 1    
    54   27   28 1    
    55   27   29 1    
    56   27   95 1    
    57   28   96 1    
    58   28   97 1    
    59   28   98 1    
    60   29   30 am   BACKBONE|DICT|INTERRES
    61   29   99 1    
    62   30   31 2    
    63   30   32 1    
    64   32   33 1    
    65   32   34 1    
    66   32  100 1    
    67   33  101 1    
    68   33  102 1    
    69   33  103 1    
    70   34   35 am   BACKBONE|DICT|INTERRES
    71   34  104 1    
    72   35   36 2    
    73   37   38 2    
    74   37   39 am   BACKBONE|DICT|INTERRES
    75   39   40 1    
    76   39  105 1    
    77   40   41 1    
    78   40   42 1    
    79   40  106 1    
    80   41  107 1    
    81   41  108 1    
    82   41  109 1    
    83   42   43 2    
    84   42   44 am   BACKBONE|DICT|INTERRES
    85   44   45 1    
    86   44  110 1    
    87   45   46 1    
    88   45   47 1    
    89   45  111 1    
    90   46  112 1    
    91   46  113 1    
    92   46  114 1    
    93   47   48 2    
    94   47   49 am   BACKBONE|DICT|INTERRES
    95   49   50 1    
    96   49  115 1    
    97   50   51 1    
    98   50   52 1    
    99   50  116 1    
   100   51  117 1    
   101   51  118 1    
   102   51  119 1    
   103   52   53 2    
   104   52   54 am   BACKBONE|DICT|INTERRES
   105   54   55 1    
   106   54  120 1    
   107   55   56 1    
   108   55   57 1    
   109   55  121 1    
   110   56  122 1    
   111   56  123 1    
   112   56  124 1    
   113   57   58 2    
   114   57   59 am   BACKBONE|DICT|INTERRES
   115   59   60 1    
   116   59  125 1    
   117   60   61 1    
   118   60   62 1    
   119   60  126 1    
   120   61  127 1    
   121   61  128 1    
   122   61  129 1    
   123   62   63 2    
   124   62   64 am   BACKBONE|DICT|INTERRES
   125   64   65 1    
   126   64  130 1    
   127   65   66 1    
   128   65   69 1    
   129   65  131 1    
   130   66   67 am   BACKBONE|DICT|INTERRES
   131   66   68 2    
   132   67  132 1    
   133   67  133 1    
   134   69   70 1    
   135   69  134 1    
   136   69  135 1    
   137   70   71 1    
   138   71  136 1    
   139   71  137 1    
@<TRIPOS>SUBSTRUCTURE
     1 UNK         1 GROUP             0       ****    0 ROOT    
