@<TRIPOS>MOLECULE
3R136
137   139    1
SMALL
USER_CHARGES


@<TRIPOS>ATOM
      1 CA         34.0075   23.7643    0.3690 C.3       0 UNK        -0.1979 
      2 C          32.4874   23.7605    0.4091 C.2       0 UNK         0.4864 
      3 O          31.8689   24.8208    0.3214 O.2       0 UNK        -0.5359 
      4 N          31.8781   22.5699    0.5059 N.am      1 UNK        -0.4318 
      5 CA         30.4260   22.3547    0.6238 C.3       1 UNK         0.0824 
      6 C6         30.0690   20.8726    0.9158 C.3       12 UNK        -0.0944 
      7 S7         31.0574   20.0984    2.2404 S.3       12 UNK        -0.2672 
      8 C8         30.1057   20.5284    3.7334 C.3       12 UNK         0.0333 
      9 C9         30.3406   21.9700    4.1632 C.ar      12 UNK        -0.0807 
     10 C10        31.6217   22.3849    4.5399 C.ar      12 UNK        -0.0894 
     11 C11        31.8541   23.7038    4.9369 C.ar      12 UNK        -0.0804 
     12 C12        30.7934   24.6126    4.9642 C.ar      12 UNK        -0.0824 
     13 C13        29.5042   24.2059    4.6076 C.ar      12 UNK        -0.0762 
     14 C14        29.2826   22.8845    4.2046 C.ar      12 UNK        -0.0782 
     15 C15        28.3461   25.1859    4.6952 C.3       12 UNK         0.0230 
     16 S16        27.9191   25.8846    3.0717 S.3       12 UNK        -0.2608 
     17 C17        26.6318   27.0764    3.5745 C.3       12 UNK        -0.0989 
     18 CA         27.0668   28.5394    3.2979 C.3       5 UNK         0.0716 
     19 N          27.1293   28.8866    1.8704 N.am      5 UNK        -0.4135 
     20 C          26.1441   28.8597    0.9609 C.2       4 UNK         0.5031 
     21 O          24.9753   28.5667    1.2184 O.2       4 UNK        -0.5229 
     22 CA         26.5119   29.2586   -0.4783 C.3       4 UNK         0.0329 
     23 CB         26.4239   30.7830   -0.6511 C.3       4 UNK        -0.2001 
     24 N          27.8380   28.7991   -0.8994 N.am      4 UNK        -0.4303 
     25 C          28.2024   27.5142   -1.0111 C.2       3 UNK         0.5044 
     26 O          27.4533   26.5673   -0.7604 O.2       3 UNK        -0.5152 
     27 CA         29.6526   27.2703   -1.4736 C.3       3 UNK         0.0319 
     28 CB         30.6475   27.7478   -0.4045 C.3       3 UNK        -0.2001 
     29 N          29.9248   25.8634   -1.7794 N.am      3 UNK        -0.4354 
     30 C          29.4124   25.1947   -2.8250 C.2       2 UNK         0.4964 
     31 O          28.7329   25.7287   -3.7037 O.2       2 UNK        -0.5047 
     32 CA         29.7108   23.6854   -2.9410 C.3       2 UNK         0.0288 
     33 CB         30.6686   23.4119   -4.1135 C.3       2 UNK        -0.2113 
     34 N          30.2779   23.0981   -1.7259 N.am      2 UNK        -0.4145 
     35 C          29.6075   22.8570   -0.5893 C.2       1 UNK         0.5006 
     36 O          28.3907   23.0081   -0.4747 O.2       1 UNK        -0.5103 
     37 C          26.2478   29.5442    4.1324 C.2       5 UNK         0.5055 
     38 O          26.7460   30.0190    5.1537 O.2       5 UNK        -0.5220 
     39 N          25.0248   29.8629    3.6899 N.am      6 UNK        -0.4450 
     40 CA         24.1393   30.8554    4.3019 C.3       6 UNK         0.0367 
     41 CB         22.7393   30.7506    3.6763 C.3       6 UNK        -0.1929 
     42 C          24.6875   32.2863    4.1751 C.2       6 UNK         0.5070 
     43 O          24.5752   33.0629    5.1239 O.2       6 UNK        -0.5237 
     44 N          25.2813   32.5997    3.0145 N.am      7 UNK        -0.4739 
     45 CA         25.9782   33.8620    2.7673 C.3       7 UNK         0.0276 
     46 CB         25.9420   34.2029    1.2676 C.3       7 UNK        -0.1927 
     47 C          27.4189   33.8040    3.2967 C.2       7 UNK         0.5013 
     48 O          27.7984   34.6505    4.1066 O.2       7 UNK        -0.5193 
     49 N          28.1848   32.8031    2.8418 N.am      8 UNK        -0.4253 
     50 CA         29.5814   32.5610    3.1966 C.3       8 UNK         0.0242 
     51 CB         30.4878   33.6664    2.6125 C.3       8 UNK        -0.2000 
     52 C          30.0114   31.1917    2.6556 C.2       8 UNK         0.4948 
     53 O          29.3501   30.6424    1.7683 O.2       8 UNK        -0.5275 
     54 N          31.1383   30.6949    3.1710 N.am      9 UNK        -0.4246 
     55 CA         31.8810   29.5457    2.6660 C.3       9 UNK         0.0261 
     56 CB         31.4205   28.2535    3.3654 C.3       9 UNK        -0.1959 
     57 C          33.3702   29.8184    2.9054 C.2       9 UNK         0.5033 
     58 O          33.7065   30.5905    3.8086 O.2       9 UNK        -0.5390 
     59 N          34.2327   29.1993    2.0888 N.am      10 UNK        -0.4215 
     60 CA         35.6904   29.3368    2.1803 C.3       10 UNK         0.0240 
     61 CB         36.3395   28.8157    0.8870 C.3       10 UNK        -0.1982 
     62 C          36.2744   28.6201    3.4091 C.2       10 UNK         0.4970 
     63 O          37.1712   29.1577    4.0599 O.2       10 UNK        -0.4916 
     64 N          35.7510   27.4239    3.6946 N.am      11 UNK        -0.4279 
     65 CA         36.0560   26.6236    4.8846 C.3       11 UNK         0.1003 
     66 C          35.3246   27.1413    6.1537 C.2       11 UNK         0.5709 
     67 N          35.8622   26.8592    7.3329 N.am      11 UNK        -0.7358 
     68 O          34.2652   27.7617    6.0866 O.2       11 UNK        -0.4999 
     69 C69        35.7960   25.1145    4.6276 C.3       12 UNK        -0.0954 
     70 S70        34.1658   24.7458    3.8911 S.3       12 UNK        -0.2268 
     71 C71        33.2514   24.1432    5.3370 C.3       12 UNK         0.0203 
     72 H72        34.3572   23.7694   -0.6628 H         1 UNK         0.0888 
     73 H73        34.4228   22.8917    0.8729 H         1 UNK         0.0888 
     74 H74        34.3964   24.6539    0.8631 H         1 UNK         0.0888 
     75 H75        32.4382   21.7325    0.5838 H         1 UNK         0.3017 
     76 H76        30.0973   22.9556    1.4735 H         1 UNK         0.0873 
     77 H77        29.0106   20.7784    1.1672 H         1 UNK         0.0745 
     78 H78        30.2164   20.2679    0.0186 H         1 UNK         0.0745 
     79 H79        29.0462   20.3305    3.5645 H         1 UNK         0.0705 
     80 H80        30.4138   19.8678    4.5451 H         1 UNK         0.0705 
     81 H81        32.4419   21.6803    4.5123 H         1 UNK         0.1334 
     82 H82        30.9720   25.6344    5.2707 H         1 UNK         0.1417 
     83 H83        28.2853   22.5716    3.9260 H         1 UNK         0.1562 
     84 H84        28.5926   25.9976    5.3819 H         1 UNK         0.0748 
     85 H85        27.4723   24.6835    5.1133 H         1 UNK         0.0748 
     86 H86        26.4134   26.9338    4.6349 H         1 UNK         0.0940 
     87 H87        25.7055   26.8314    3.0533 H         1 UNK         0.0940 
     88 H88        28.0919   28.6467    3.6558 H         1 UNK         0.0703 
     89 H89        28.0305   29.2519    1.5730 H         1 UNK         0.3081 
     90 H90        25.7766   28.7970   -1.1407 H         1 UNK         0.0719 
     91 H91        27.1907   31.2968   -0.0707 H         1 UNK         0.0809 
     92 H92        26.5479   31.0701   -1.6955 H         1 UNK         0.0809 
     93 H93        25.4527   31.1608   -0.3280 H         1 UNK         0.0809 
     94 H94        28.5188   29.5159   -1.1064 H         1 UNK         0.2990 
     95 H95        29.8174   27.8496   -2.3845 H         1 UNK         0.0690 
     96 H96        31.6782   27.5585   -0.7048 H         1 UNK         0.0788 
     97 H97        30.4796   27.2481    0.5512 H         1 UNK         0.0788 
     98 H98        30.5511   28.8206   -0.2385 H         1 UNK         0.0788 
     99 H99        30.4752   25.3583   -1.0920 H         1 UNK         0.2993 
    100 H100       28.7614   23.1871   -3.1489 H         1 UNK         0.0949 
    101 H101       30.2620   23.7984   -5.0493 H         1 UNK         0.0767 
    102 H102       31.6394   23.8852   -3.9601 H         1 UNK         0.0767 
    103 H103       30.8324   22.3430   -4.2519 H         1 UNK         0.0767 
    104 H104       31.2749   22.9404   -1.7226 H         1 UNK         0.3013 
    105 H105       24.7109   29.4136    2.8312 H         1 UNK         0.3121 
    106 H106       24.0573   30.6236    5.3661 H         1 UNK         0.0774 
    107 H107       22.7589   30.9429    2.6028 H         1 UNK         0.0815 
    108 H108       22.0567   31.4735    4.1253 H         1 UNK         0.0815 
    109 H109       22.3092   29.7609    3.8315 H         1 UNK         0.0815 
    110 H110       25.3140   31.8992    2.2897 H         1 UNK         0.2987 
    111 H111       25.4610   34.6650    3.2983 H         1 UNK         0.0949 
    112 H112       26.4507   33.4562    0.6594 H         1 UNK         0.0806 
    113 H113       24.9170   34.2869    0.9061 H         1 UNK         0.0806 
    114 H114       26.4297   35.1601    1.0776 H         1 UNK         0.0806 
    115 H115       27.8072   32.1256    2.1935 H         1 UNK         0.3010 
    116 H116       29.6668   32.5459    4.2852 H         1 UNK         0.0829 
    117 H117       30.2502   34.6464    3.0256 H         1 UNK         0.0813 
    118 H118       31.5388   33.4785    2.8357 H         1 UNK         0.0813 
    119 H119       30.3917   33.7299    1.5279 H         1 UNK         0.0813 
    120 H120       31.6552   31.2291    3.8601 H         1 UNK         0.3038 
    121 H121       31.7242   29.4623    1.5910 H         1 UNK         0.0769 
    122 H122       31.5623   28.3084    4.4455 H         1 UNK         0.0811 
    123 H123       31.9810   27.3889    3.0069 H         1 UNK         0.0811 
    124 H124       30.3673   28.0521    3.1730 H         1 UNK         0.0811 
    125 H125       33.8747   28.5938    1.3638 H         1 UNK         0.3204 
    126 H126       35.9278   30.3991    2.2734 H         1 UNK         0.0748 
    127 H127       37.4245   28.9233    0.9255 H         1 UNK         0.0771 
    128 H128       36.1230   27.7599    0.7187 H         1 UNK         0.0771 
    129 H129       35.9920   29.3728    0.0166 H         1 UNK         0.0771 
    130 H130       34.9931   27.0742    3.1286 H         1 UNK         0.2980 
    131 H131       37.1251   26.7315    5.0794 H         1 UNK         0.0545 
    132 H132       36.7253   26.3433    7.4052 H         1 UNK         0.3459 
    133 H133       35.3969   27.1757    8.1691 H         1 UNK         0.3459 
    134 H134       36.5474   24.7426    3.9296 H         1 UNK         0.0616 
    135 H135       35.9366   24.5292    5.5381 H         1 UNK         0.0616 
    136 H136       33.7915   23.3105    5.7902 H         1 UNK         0.0634 
    137 H137       33.1989   24.9301    6.0909 H         1 UNK         0.0634 
@<TRIPOS>BOND
     1    1    2 1    
     2    1   72 1    
     3    1   73 1    
     4    1   74 1    
     5    2    3 2    
     6    2    4 am   BACKBONE|DICT|INTERRES
     7    4    5 1    
     8    4   75 1    
     9    5    6 1    
    10    5   35 1    
    11    5   76 1    
    12    6    7 1    
    13    6   77 1    
    14    6   78 1    
    15    7    8 1    
    16    8    9 1    
    17    8   79 1    
    18    8   80 1    
    19    9   10 ar   
    20    9   14 ar   
    21   10   11 ar   
    22   10   81 1    
    23   11   12 ar   
    24   11   71 1    
    25   12   13 ar   
    26   12   82 1    
    27   13   14 ar   
    28   13   15 1    
    29   14   83 1    
    30   15   16 1    
    31   15   84 1    
    32   15   85 1    
    33   16   17 1    
    34   17   18 1    
    35   17   86 1    
    36   17   87 1    
    37   18   19 1    
    38   18   37 1    
    39   18   88 1    
    40   19   20 am   BACKBONE|DICT|INTERRES
    41   19   89 1    
    42   20   21 2    
    43   20   22 1    
    44   22   23 1    
    45   22   24 1    
    46   22   90 1    
    47   23   91 1    
    48   23   92 1    
    49   23   93 1    
    50   24   25 am   BACKBONE|DICT|INTERRES
    51   24   94 1    
    52   25   26 2    
    53   25   27 1    
    54   27   28 1    
    55   27   29 1    
    56   27   95 1    
    57   28   96 1    
    58   28   97 1    
    59   28   98 1    
    60   29   30 am   BACKBONE|DICT|INTERRES
    61   29   99 1    
    62   30   31 2    
    63   30   32 1    
    64   32   33 1    
    65   32   34 1    
    66   32  100 1    
    67   33  101 1    
    68   33  102 1    
    69   33  103 1    
    70   34   35 am   BACKBONE|DICT|INTERRES
    71   34  104 1    
    72   35   36 2    
    73   37   38 2    
    74   37   39 am   BACKBONE|DICT|INTERRES
    75   39   40 1    
    76   39  105 1    
    77   40   41 1    
    78   40   42 1    
    79   40  106 1    
    80   41  107 1    
    81   41  108 1    
    82   41  109 1    
    83   42   43 2    
    84   42   44 am   BACKBONE|DICT|INTERRES
    85   44   45 1    
    86   44  110 1    
    87   45   46 1    
    88   45   47 1    
    89   45  111 1    
    90   46  112 1    
    91   46  113 1    
    92   46  114 1    
    93   47   48 2    
    94   47   49 am   BACKBONE|DICT|INTERRES
    95   49   50 1    
    96   49  115 1    
    97   50   51 1    
    98   50   52 1    
    99   50  116 1    
   100   51  117 1    
   101   51  118 1    
   102   51  119 1    
   103   52   53 2    
   104   52   54 am   BACKBONE|DICT|INTERRES
   105   54   55 1    
   106   54  120 1    
   107   55   56 1    
   108   55   57 1    
   109   55  121 1    
   110   56  122 1    
   111   56  123 1    
   112   56  124 1    
   113   57   58 2    
   114   57   59 am   BACKBONE|DICT|INTERRES
   115   59   60 1    
   116   59  125 1    
   117   60   61 1    
   118   60   62 1    
   119   60  126 1    
   120   61  127 1    
   121   61  128 1    
   122   61  129 1    
   123   62   63 2    
   124   62   64 am   BACKBONE|DICT|INTERRES
   125   64   65 1    
   126   64  130 1    
   127   65   66 1    
   128   65   69 1    
   129   65  131 1    
   130   66   67 am   BACKBONE|DICT|INTERRES
   131   66   68 2    
   132   67  132 1    
   133   67  133 1    
   134   69   70 1    
   135   69  134 1    
   136   69  135 1    
   137   70   71 1    
   138   71  136 1    
   139   71  137 1    
@<TRIPOS>SUBSTRUCTURE
     1 UNK         1 GROUP             0       ****    0 ROOT    
