@<TRIPOS>MOLECULE
3R136
137   139    1
SMALL
USER_CHARGES


@<TRIPOS>ATOM
      1 CA         29.7175   19.5673    4.3024 C.3       0 UNK        -0.1979 
      2 C          28.9083   19.8804    3.0523 C.2       0 UNK         0.4864 
      3 O          28.4456   18.9582    2.3790 O.2       0 UNK        -0.5359 
      4 N          28.7380   21.1709    2.7450 N.am      1 UNK        -0.4318 
      5 CA         27.9638   21.6806    1.6125 C.3       1 UNK         0.0824 
      6 C6         28.8288   22.5480    0.6646 C.3       12 UNK        -0.0944 
      7 S7         30.1071   21.5934   -0.2160 S.3       12 UNK        -0.2672 
      8 C8         31.5872   21.8844    0.8096 C.3       12 UNK         0.0333 
      9 C9         32.0031   23.3501    0.8576 C.ar      12 UNK        -0.0807 
     10 C10        32.0289   24.0374    2.0749 C.ar      12 UNK        -0.0894 
     11 C11        32.4451   25.3720    2.1415 C.ar      12 UNK        -0.0804 
     12 C12        32.8238   26.0224    0.9578 C.ar      12 UNK        -0.0824 
     13 C13        32.8174   25.3418   -0.2643 C.ar      12 UNK        -0.0762 
     14 C14        32.4057   24.0072   -0.3069 C.ar      12 UNK        -0.0782 
     15 C15        33.3185   26.0148   -1.5341 C.3       12 UNK         0.0230 
     16 S16        31.9759   26.3553   -2.7146 S.3       12 UNK        -0.2608 
     17 C17        31.4616   28.0397   -2.2401 C.3       12 UNK        -0.0989 
     18 CA         29.9191   28.1595   -2.1042 C.3       5 UNK         0.0716 
     19 N          29.3835   27.3199   -1.0216 N.am      5 UNK        -0.4135 
     20 C          29.5234   27.5236    0.2979 C.2       4 UNK         0.5031 
     21 O          30.1593   28.4636    0.7757 O.2       4 UNK        -0.5229 
     22 CA         28.7500   26.5632    1.2270 C.3       4 UNK         0.0329 
     23 CB         28.5341   27.1511    2.6347 C.3       4 UNK        -0.2001 
     24 N          27.4595   26.1116    0.6806 N.am      4 UNK        -0.4303 
     25 C          26.4593   26.8754    0.2081 C.2       3 UNK         0.5044 
     26 O          26.5126   28.1026    0.1172 O.2       3 UNK        -0.5152 
     27 CA         25.2031   26.1460   -0.2976 C.3       3 UNK         0.0319 
     28 CB         25.2617   25.9917   -1.8262 C.3       3 UNK        -0.2001 
     29 N          25.0159   24.8261    0.3125 N.am      3 UNK        -0.4354 
     30 C          24.5115   24.6240    1.5389 C.2       2 UNK         0.4964 
     31 O          24.1268   25.5269    2.2821 O.2       2 UNK        -0.5047 
     32 CA         24.4325   23.1641    2.0177 C.3       2 UNK         0.0288 
     33 CB         23.1612   22.4842    1.4825 C.3       2 UNK        -0.2113 
     34 N          25.6105   22.3794    1.6325 N.am      2 UNK        -0.4145 
     35 C          26.8211   22.5304    2.1873 C.2       1 UNK         0.5006 
     36 O          27.0654   23.3315    3.0934 O.2       1 UNK        -0.5103 
     37 C          29.4477   29.6363   -2.0337 C.2       5 UNK         0.5055 
     38 O          30.1221   30.5121   -2.5787 O.2       5 UNK        -0.5220 
     39 N          28.3158   29.8948   -1.3539 N.am      6 UNK        -0.4450 
     40 CA         27.7811   31.2125   -0.9856 C.3       6 UNK         0.0367 
     41 CB         27.3358   32.0032   -2.2343 C.3       6 UNK        -0.1929 
     42 C          28.7209   32.0250   -0.0654 C.2       6 UNK         0.5070 
     43 O          28.6117   33.2511   -0.0165 O.2       6 UNK        -0.5237 
     44 N          29.6134   31.3369    0.6588 N.am      7 UNK        -0.4739 
     45 CA         30.6109   31.9065    1.5640 C.3       7 UNK         0.0276 
     46 CB         32.0097   31.7028    0.9510 C.3       7 UNK        -0.1927 
     47 C          30.4858   31.2650    2.9547 C.2       7 UNK         0.5013 
     48 O          31.5025   31.0138    3.6031 O.2       7 UNK        -0.5193 
     49 N          29.2396   31.0036    3.3812 N.am      8 UNK        -0.4253 
     50 CA         28.8710   30.3464    4.6396 C.3       8 UNK         0.0242 
     51 CB         27.3418   30.3653    4.7930 C.3       8 UNK        -0.2000 
     52 C          29.5456   30.9721    5.8715 C.2       8 UNK         0.4948 
     53 O          29.6255   32.1993    5.9698 O.2       8 UNK        -0.5275 
     54 N          30.0542   30.1086    6.7603 N.am      9 UNK        -0.4246 
     55 CA         30.8906   30.3913    7.9356 C.3       9 UNK         0.0261 
     56 CB         30.1900   31.3265    8.9412 C.3       9 UNK        -0.1959 
     57 C          32.3052   30.8941    7.5894 C.2       9 UNK         0.5033 
     58 O          33.2664   30.4149    8.1921 O.2       9 UNK        -0.5390 
     59 N          32.4268   31.8107    6.6189 N.am      10 UNK        -0.4215 
     60 CA         33.6938   32.3639    6.1282 C.3       10 UNK         0.0240 
     61 CB         33.4180   33.5067    5.1373 C.3       10 UNK        -0.1982 
     62 C          34.6237   31.3051    5.5083 C.2       10 UNK         0.4970 
     63 O          35.8361   31.3835    5.7112 O.2       10 UNK        -0.4916 
     64 N          34.0468   30.3206    4.8062 N.am      11 UNK        -0.4279 
     65 CA         34.7471   29.1238    4.3140 C.3       11 UNK         0.1003 
     66 C          35.1719   28.0993    5.4108 C.2       11 UNK         0.5709 
     67 N          34.8099   28.2696    6.6779 N.am      11 UNK        -0.7358 
     68 O          35.8641   27.1309    5.1057 O.2       11 UNK        -0.4999 
     69 C69        33.9926   28.4531    3.1347 C.3       12 UNK        -0.0954 
     70 S70        32.3199   27.8462    3.5530 S.3       12 UNK        -0.2268 
     71 C71        32.5312   26.0350    3.5200 C.3       12 UNK         0.0203 
     72 H72        29.1097   19.0076    5.0128 H         1 UNK         0.0888 
     73 H73        30.5858   18.9615    4.0444 H         1 UNK         0.0888 
     74 H74        30.0711   20.4718    4.7972 H         1 UNK         0.0888 
     75 H75        29.0709   21.8846    3.3788 H         1 UNK         0.3017 
     76 H76        27.5306   20.8578    1.0394 H         1 UNK         0.0873 
     77 H77        28.2055   23.0125   -0.1019 H         1 UNK         0.0745 
     78 H78        29.2955   23.3673    1.2114 H         1 UNK         0.0745 
     79 H79        31.4080   21.4965    1.8130 H         1 UNK         0.0705 
     80 H80        32.4125   21.2985    0.4028 H         1 UNK         0.0705 
     81 H81        31.7440   23.5227    2.9825 H         1 UNK         0.1334 
     82 H82        33.1482   27.0517    0.9797 H         1 UNK         0.1417 
     83 H83        32.4062   23.4752   -1.2490 H         1 UNK         0.1562 
     84 H84        34.0404   25.3547   -2.0171 H         1 UNK         0.0748 
     85 H85        33.8624   26.9332   -1.3077 H         1 UNK         0.0748 
     86 H86        31.8438   28.7083   -3.0135 H         1 UNK         0.0940 
     87 H87        31.9490   28.3423   -1.3115 H         1 UNK         0.0940 
     88 H88        29.4770   27.7739   -3.0242 H         1 UNK         0.0703 
     89 H89        28.8372   26.5256   -1.3198 H         1 UNK         0.3081 
     90 H90        29.3807   25.6805    1.3314 H         1 UNK         0.0719 
     91 H91        29.4863   27.3755    3.1131 H         1 UNK         0.0809 
     92 H92        27.9591   28.0765    2.5972 H         1 UNK         0.0809 
     93 H93        28.0057   26.4503    3.2812 H         1 UNK         0.0809 
     94 H94        27.2978   25.1168    0.7108 H         1 UNK         0.2990 
     95 H95        24.3414   26.7712   -0.0530 H         1 UNK         0.0690 
     96 H96        24.3453   25.5466   -2.2144 H         1 UNK         0.0788 
     97 H97        26.0983   25.3666   -2.1410 H         1 UNK         0.0788 
     98 H98        25.3781   26.9616   -2.3125 H         1 UNK         0.0788 
     99 H99        25.2732   24.0234   -0.2432 H         1 UNK         0.2993 
    100 H100       24.3741   23.1797    3.1088 H         1 UNK         0.0949 
    101 H101       22.2697   23.0422    1.7728 H         1 UNK         0.0767 
    102 H102       23.1626   22.4160    0.3939 H         1 UNK         0.0767 
    103 H103       23.0534   21.4755    1.8822 H         1 UNK         0.0767 
    104 H104       25.4832   21.6936    0.9014 H         1 UNK         0.3013 
    105 H105       27.8208   29.1138   -0.9298 H         1 UNK         0.3121 
    106 H106       26.8884   31.0114   -0.3914 H         1 UNK         0.0774 
    107 H107       28.1854   32.3161   -2.8415 H         1 UNK         0.0815 
    108 H108       26.7914   32.9051   -1.9520 H         1 UNK         0.0815 
    109 H109       26.6721   31.4105   -2.8637 H         1 UNK         0.0815 
    110 H110       29.6414   30.3217    0.5831 H         1 UNK         0.2987 
    111 H111       30.4446   32.9772    1.6983 H         1 UNK         0.0949 
    112 H112       32.2472   30.6427    0.8488 H         1 UNK         0.0806 
    113 H113       32.0798   32.1586   -0.0366 H         1 UNK         0.0806 
    114 H114       32.7832   32.1541    1.5737 H         1 UNK         0.0806 
    115 H115       28.4797   31.2675    2.7726 H         1 UNK         0.3010 
    116 H116       29.2002   29.3094    4.5574 H         1 UNK         0.0829 
    117 H117       27.0337   29.8512    5.7045 H         1 UNK         0.0813 
    118 H118       26.9572   31.3847    4.8486 H         1 UNK         0.0813 
    119 H119       26.8488   29.8652    3.9592 H         1 UNK         0.0813 
    120 H120       29.9414   29.1240    6.5605 H         1 UNK         0.3038 
    121 H121       31.0206   29.4281    8.4322 H         1 UNK         0.0769 
    122 H122       30.0609   32.3347    8.5468 H         1 UNK         0.0811 
    123 H123       30.7743   31.4140    9.8580 H         1 UNK         0.0811 
    124 H124       29.2070   30.9460    9.2185 H         1 UNK         0.0811 
    125 H125       31.5720   32.1274    6.1682 H         1 UNK         0.3204 
    126 H126       34.2146   32.7860    6.9901 H         1 UNK         0.0748 
    127 H127       34.3501   33.9600    4.7972 H         1 UNK         0.0771 
    128 H128       32.8848   33.1588    4.2527 H         1 UNK         0.0771 
    129 H129       32.8235   34.2959    5.5977 H         1 UNK         0.0771 
    130 H130       33.0515   30.3731    4.6042 H         1 UNK         0.2980 
    131 H131       35.6912   29.4780    3.8964 H         1 UNK         0.0545 
    132 H132       35.1066   27.5939    7.3633 H         1 UNK         0.3459 
    133 H133       34.2703   29.0746    6.9711 H         1 UNK         0.3459 
    134 H134       33.8810   29.1737    2.3233 H         1 UNK         0.0616 
    135 H135       34.5894   27.6384    2.7215 H         1 UNK         0.0616 
    136 H136       31.7574   25.6168    4.1656 H         1 UNK         0.0634 
    137 H137       33.4848   25.7747    3.9807 H         1 UNK         0.0634 
@<TRIPOS>BOND
     1    1    2 1    
     2    1   72 1    
     3    1   73 1    
     4    1   74 1    
     5    2    3 2    
     6    2    4 am   BACKBONE|DICT|INTERRES
     7    4    5 1    
     8    4   75 1    
     9    5    6 1    
    10    5   35 1    
    11    5   76 1    
    12    6    7 1    
    13    6   77 1    
    14    6   78 1    
    15    7    8 1    
    16    8    9 1    
    17    8   79 1    
    18    8   80 1    
    19    9   10 ar   
    20    9   14 ar   
    21   10   11 ar   
    22   10   81 1    
    23   11   12 ar   
    24   11   71 1    
    25   12   13 ar   
    26   12   82 1    
    27   13   14 ar   
    28   13   15 1    
    29   14   83 1    
    30   15   16 1    
    31   15   84 1    
    32   15   85 1    
    33   16   17 1    
    34   17   18 1    
    35   17   86 1    
    36   17   87 1    
    37   18   19 1    
    38   18   37 1    
    39   18   88 1    
    40   19   20 am   BACKBONE|DICT|INTERRES
    41   19   89 1    
    42   20   21 2    
    43   20   22 1    
    44   22   23 1    
    45   22   24 1    
    46   22   90 1    
    47   23   91 1    
    48   23   92 1    
    49   23   93 1    
    50   24   25 am   BACKBONE|DICT|INTERRES
    51   24   94 1    
    52   25   26 2    
    53   25   27 1    
    54   27   28 1    
    55   27   29 1    
    56   27   95 1    
    57   28   96 1    
    58   28   97 1    
    59   28   98 1    
    60   29   30 am   BACKBONE|DICT|INTERRES
    61   29   99 1    
    62   30   31 2    
    63   30   32 1    
    64   32   33 1    
    65   32   34 1    
    66   32  100 1    
    67   33  101 1    
    68   33  102 1    
    69   33  103 1    
    70   34   35 am   BACKBONE|DICT|INTERRES
    71   34  104 1    
    72   35   36 2    
    73   37   38 2    
    74   37   39 am   BACKBONE|DICT|INTERRES
    75   39   40 1    
    76   39  105 1    
    77   40   41 1    
    78   40   42 1    
    79   40  106 1    
    80   41  107 1    
    81   41  108 1    
    82   41  109 1    
    83   42   43 2    
    84   42   44 am   BACKBONE|DICT|INTERRES
    85   44   45 1    
    86   44  110 1    
    87   45   46 1    
    88   45   47 1    
    89   45  111 1    
    90   46  112 1    
    91   46  113 1    
    92   46  114 1    
    93   47   48 2    
    94   47   49 am   BACKBONE|DICT|INTERRES
    95   49   50 1    
    96   49  115 1    
    97   50   51 1    
    98   50   52 1    
    99   50  116 1    
   100   51  117 1    
   101   51  118 1    
   102   51  119 1    
   103   52   53 2    
   104   52   54 am   BACKBONE|DICT|INTERRES
   105   54   55 1    
   106   54  120 1    
   107   55   56 1    
   108   55   57 1    
   109   55  121 1    
   110   56  122 1    
   111   56  123 1    
   112   56  124 1    
   113   57   58 2    
   114   57   59 am   BACKBONE|DICT|INTERRES
   115   59   60 1    
   116   59  125 1    
   117   60   61 1    
   118   60   62 1    
   119   60  126 1    
   120   61  127 1    
   121   61  128 1    
   122   61  129 1    
   123   62   63 2    
   124   62   64 am   BACKBONE|DICT|INTERRES
   125   64   65 1    
   126   64  130 1    
   127   65   66 1    
   128   65   69 1    
   129   65  131 1    
   130   66   67 am   BACKBONE|DICT|INTERRES
   131   66   68 2    
   132   67  132 1    
   133   67  133 1    
   134   69   70 1    
   135   69  134 1    
   136   69  135 1    
   137   70   71 1    
   138   71  136 1    
   139   71  137 1    
@<TRIPOS>SUBSTRUCTURE
     1 UNK         1 GROUP             0       ****    0 ROOT    
