@<TRIPOS>MOLECULE
3R136
137   139    1
SMALL
USER_CHARGES


@<TRIPOS>ATOM
      1 CA         26.9133   22.5423   -1.2616 C.3       0 UNK        -0.1979 
      2 C          28.1163   22.9644   -2.0924 C.2       0 UNK         0.4864 
      3 O          28.0578   22.9255   -3.3217 O.2       0 UNK        -0.5359 
      4 N          29.2041   23.3744   -1.4268 N.am      1 UNK        -0.4318 
      5 CA         30.4505   23.8672   -2.0322 C.3       1 UNK         0.0824 
      6 C6         31.6084   23.9220   -1.0003 C.3       12 UNK        -0.0944 
      7 S7         31.1390   24.6888    0.5923 S.3       12 UNK        -0.2672 
      8 C8         31.8416   23.5034    1.7851 C.3       12 UNK         0.0333 
      9 C9         31.4489   23.8529    3.2137 C.ar      12 UNK        -0.0807 
     10 C10        31.9111   25.0359    3.7982 C.ar      12 UNK        -0.0894 
     11 C11        31.5470   25.3721    5.1048 C.ar      12 UNK        -0.0804 
     12 C12        30.7280   24.5081    5.8372 C.ar      12 UNK        -0.0824 
     13 C13        30.2599   23.3206    5.2650 C.ar      12 UNK        -0.0762 
     14 C14        30.6268   22.9964    3.9542 C.ar      12 UNK        -0.0782 
     15 C15        29.3371   22.4005    6.0534 C.3       12 UNK         0.0230 
     16 S16        27.6175   22.4745    5.4497 S.3       12 UNK        -0.2608 
     17 C17        27.1689   24.2127    5.7897 C.3       12 UNK        -0.0989 
     18 CA         27.3966   25.1257    4.5545 C.3       5 UNK         0.0716 
     19 N          26.6544   24.7041    3.3626 N.am      5 UNK        -0.4135 
     20 C          25.3359   24.7913    3.1460 C.2       4 UNK         0.5031 
     21 O          24.5146   25.1850    3.9763 O.2       4 UNK        -0.5229 
     22 CA         24.8742   24.4055    1.7273 C.3       4 UNK         0.0329 
     23 CB         23.4563   23.8060    1.7320 C.3       4 UNK        -0.2001 
     24 N          24.9150   25.5209    0.7712 N.am      4 UNK        -0.4303 
     25 C          25.9850   26.2588    0.4436 C.2       3 UNK         0.5044 
     26 O          27.0945   26.1610    0.9791 O.2       3 UNK        -0.5152 
     27 CA         25.8060   27.2627   -0.7010 C.3       3 UNK         0.0319 
     28 CB         25.3400   28.6341   -0.1894 C.3       3 UNK        -0.2001 
     29 N          27.1102   27.3910   -1.3368 N.am      3 UNK        -0.4354 
     30 C          27.3525   27.4428   -2.6507 C.2       2 UNK         0.4964 
     31 O          26.4861   27.5916   -3.5122 O.2       2 UNK        -0.5047 
     32 CA         28.8089   27.2062   -3.0628 C.3       2 UNK         0.0288 
     33 CB         29.6924   28.4358   -2.7803 C.3       2 UNK        -0.2113 
     34 N          29.2994   26.0160   -2.3649 N.am      2 UNK        -0.4145 
     35 C          30.2801   25.2084   -2.7845 C.2       1 UNK         0.5006 
     36 O          31.0114   25.4613   -3.7440 O.2       1 UNK        -0.5103 
     37 C          27.2157   26.6302    4.8523 C.2       5 UNK         0.5055 
     38 O          27.1182   27.0272    6.0152 O.2       5 UNK        -0.5220 
     39 N          27.1741   27.4372    3.7841 N.am      6 UNK        -0.4450 
     40 CA         27.0264   28.8921    3.8297 C.3       6 UNK         0.0367 
     41 CB         25.5378   29.2643    3.6959 C.3       6 UNK        -0.1929 
     42 C          27.9138   29.5703    2.7730 C.2       6 UNK         0.5070 
     43 O          27.6251   30.6922    2.3541 O.2       6 UNK        -0.5237 
     44 N          28.9841   28.8839    2.3528 N.am      7 UNK        -0.4739 
     45 CA         29.9989   29.3834    1.4300 C.3       7 UNK         0.0276 
     46 CB         30.7450   28.1791    0.8306 C.3       7 UNK        -0.1927 
     47 C          30.9512   30.3293    2.1759 C.2       7 UNK         0.5013 
     48 O          32.0172   29.8959    2.6127 O.2       7 UNK        -0.5193 
     49 N          30.5398   31.5940    2.3406 N.am      8 UNK        -0.4253 
     50 CA         31.2007   32.6266    3.1536 C.3       8 UNK         0.0242 
     51 CB         30.4559   33.9597    2.9803 C.3       8 UNK        -0.2000 
     52 C          32.7086   32.8202    2.9032 C.2       8 UNK         0.4948 
     53 O          33.4342   33.1370    3.8455 O.2       8 UNK        -0.5275 
     54 N          33.1626   32.5834    1.6642 N.am      9 UNK        -0.4246 
     55 CA         34.5773   32.5831    1.2783 C.3       9 UNK         0.0261 
     56 CB         34.6821   32.4709   -0.2515 C.3       9 UNK        -0.1959 
     57 C          35.4118   31.4764    1.9560 C.2       9 UNK         0.5033 
     58 O          36.6167   31.6640    2.1318 O.2       9 UNK        -0.5390 
     59 N          34.7700   30.3583    2.3205 N.am      10 UNK        -0.4215 
     60 CA         35.3662   29.2467    3.0597 C.3       10 UNK         0.0240 
     61 CB         34.8993   27.9155    2.4440 C.3       10 UNK        -0.1982 
     62 C          34.9849   29.3111    4.5458 C.2       10 UNK         0.4970 
     63 O          35.8502   29.1005    5.3963 O.2       10 UNK        -0.4916 
     64 N          33.7035   29.5793    4.8319 N.am      11 UNK        -0.4279 
     65 CA         33.1409   29.6123    6.1900 C.3       11 UNK         0.1003 
     66 C          33.5787   30.8334    7.0471 C.2       11 UNK         0.5709 
     67 N          33.9860   31.9531    6.4623 N.am      11 UNK        -0.7358 
     68 O          33.5562   30.7575    8.2733 O.2       11 UNK        -0.4999 
     69 C69        31.5934   29.4731    6.1826 C.3       12 UNK        -0.0954 
     70 S70        30.9113   28.0412    5.2712 S.3       12 UNK        -0.2268 
     71 C71        32.0284   26.6765    5.7161 C.3       12 UNK         0.0203 
     72 H72        26.0969   23.2518   -1.3951 H         1 UNK         0.0888 
     73 H73        26.5656   21.5583   -1.5761 H         1 UNK         0.0888 
     74 H74        27.1521   22.4907   -0.1994 H         1 UNK         0.0888 
     75 H75        29.1985   23.3852   -0.4159 H         1 UNK         0.3017 
     76 H76        30.7362   23.1401   -2.7958 H         1 UNK         0.0873 
     77 H77        31.9527   22.9043   -0.8106 H         1 UNK         0.0745 
     78 H78        32.4765   24.4476   -1.4037 H         1 UNK         0.0745 
     79 H79        31.5066   22.4946    1.5326 H         1 UNK         0.0705 
     80 H80        32.9306   23.5040    1.6972 H         1 UNK         0.0705 
     81 H81        32.5393   25.7052    3.2262 H         1 UNK         0.1334 
     82 H82        30.4393   24.7717    6.8457 H         1 UNK         0.1417 
     83 H83        30.2577   22.0820    3.5095 H         1 UNK         0.1562 
     84 H84        29.3575   22.6447    7.1167 H         1 UNK         0.0748 
     85 H85        29.6961   21.3737    5.9705 H         1 UNK         0.0748 
     86 H86        27.7489   24.5620    6.6458 H         1 UNK         0.0940 
     87 H87        26.1232   24.2484    6.1000 H         1 UNK         0.0940 
     88 H88        28.4440   25.0419    4.2689 H         1 UNK         0.0703 
     89 H89        27.2324   24.4404    2.5766 H         1 UNK         0.3081 
     90 H90        25.5512   23.6324    1.3591 H         1 UNK         0.0719 
     91 H91        22.7061   24.5426    2.0231 H         1 UNK         0.0809 
     92 H92        23.1842   23.4191    0.7498 H         1 UNK         0.0809 
     93 H93        23.3864   22.9752    2.4358 H         1 UNK         0.0809 
     94 H94        24.0477   25.7106    0.2895 H         1 UNK         0.2990 
     95 H95        25.0771   26.8638   -1.4100 H         1 UNK         0.0690 
     96 H96        25.1966   29.3314   -1.0149 H         1 UNK         0.0788 
     97 H97        26.0649   29.0768    0.4934 H         1 UNK         0.0788 
     98 H98        24.3889   28.5563    0.3385 H         1 UNK         0.0788 
     99 H99        27.8781   27.2604   -0.6905 H         1 UNK         0.2993 
    100 H100       28.8201   27.0066   -4.1369 H         1 UNK         0.0949 
    101 H101       29.3560   29.2931   -3.3646 H         1 UNK         0.0767 
    102 H102       29.6627   28.7293   -1.7324 H         1 UNK         0.0767 
    103 H103       30.7327   28.2504   -3.0479 H         1 UNK         0.0767 
    104 H104       28.7345   25.6884   -1.5944 H         1 UNK         0.3013 
    105 H105       27.2419   27.0230    2.8584 H         1 UNK         0.3121 
    106 H106       27.3860   29.2638    4.7916 H         1 UNK         0.0774 
    107 H107       25.1165   28.9078    2.7567 H         1 UNK         0.0815 
    108 H108       25.3933   30.3446    3.7344 H         1 UNK         0.0815 
    109 H109       24.9509   28.8327    4.5069 H         1 UNK         0.0815 
    110 H110       29.1911   28.0039    2.8031 H         1 UNK         0.2987 
    111 H111       29.5185   29.9335    0.6178 H         1 UNK         0.0949 
    112 H112       31.2465   27.5897    1.5998 H         1 UNK         0.0806 
    113 H113       30.0637   27.5141    0.3011 H         1 UNK         0.0806 
    114 H114       31.5070   28.5014    0.1201 H         1 UNK         0.0806 
    115 H115       29.6145   31.8216    1.9982 H         1 UNK         0.3010 
    116 H116       31.0957   32.3160    4.1948 H         1 UNK         0.0829 
    117 H117       29.4121   33.8743    3.2835 H         1 UNK         0.0813 
    118 H118       30.9055   34.7422    3.5936 H         1 UNK         0.0813 
    119 H119       30.4787   34.3027    1.9451 H         1 UNK         0.0813 
    120 H120       32.4935   32.3292    0.9523 H         1 UNK         0.3038 
    121 H121       35.0030   33.5421    1.5813 H         1 UNK         0.0769 
    122 H122       34.2513   31.5385   -0.6189 H         1 UNK         0.0811 
    123 H123       35.7242   32.4969   -0.5737 H         1 UNK         0.0811 
    124 H124       34.1718   33.2970   -0.7471 H         1 UNK         0.0811 
    125 H125       33.7623   30.3070    2.1870 H         1 UNK         0.3204 
    126 H126       36.4552   29.2874    2.9894 H         1 UNK         0.0748 
    127 H127       33.8140   27.8097    2.4754 H         1 UNK         0.0771 
    128 H128       35.2110   27.8320    1.4027 H         1 UNK         0.0771 
    129 H129       35.3255   27.0661    2.9796 H         1 UNK         0.0771 
    130 H130       33.0400   29.7049    4.0705 H         1 UNK         0.2980 
    131 H131       33.5411   28.7458    6.7184 H         1 UNK         0.0545 
    132 H132       34.2717   32.7266    7.0405 H         1 UNK         0.3459 
    133 H133       33.9435   32.0749    5.4567 H         1 UNK         0.3459 
    134 H134       31.2193   29.4084    7.2060 H         1 UNK         0.0616 
    135 H135       31.1419   30.3694    5.7542 H         1 UNK         0.0616 
    136 H136       33.0370   26.8881    5.3601 H         1 UNK         0.0634 
    137 H137       32.0862   26.5920    6.8023 H         1 UNK         0.0634 
@<TRIPOS>BOND
     1    1    2 1    
     2    1   72 1    
     3    1   73 1    
     4    1   74 1    
     5    2    3 2    
     6    2    4 am   BACKBONE|DICT|INTERRES
     7    4    5 1    
     8    4   75 1    
     9    5    6 1    
    10    5   35 1    
    11    5   76 1    
    12    6    7 1    
    13    6   77 1    
    14    6   78 1    
    15    7    8 1    
    16    8    9 1    
    17    8   79 1    
    18    8   80 1    
    19    9   10 ar   
    20    9   14 ar   
    21   10   11 ar   
    22   10   81 1    
    23   11   12 ar   
    24   11   71 1    
    25   12   13 ar   
    26   12   82 1    
    27   13   14 ar   
    28   13   15 1    
    29   14   83 1    
    30   15   16 1    
    31   15   84 1    
    32   15   85 1    
    33   16   17 1    
    34   17   18 1    
    35   17   86 1    
    36   17   87 1    
    37   18   19 1    
    38   18   37 1    
    39   18   88 1    
    40   19   20 am   BACKBONE|DICT|INTERRES
    41   19   89 1    
    42   20   21 2    
    43   20   22 1    
    44   22   23 1    
    45   22   24 1    
    46   22   90 1    
    47   23   91 1    
    48   23   92 1    
    49   23   93 1    
    50   24   25 am   BACKBONE|DICT|INTERRES
    51   24   94 1    
    52   25   26 2    
    53   25   27 1    
    54   27   28 1    
    55   27   29 1    
    56   27   95 1    
    57   28   96 1    
    58   28   97 1    
    59   28   98 1    
    60   29   30 am   BACKBONE|DICT|INTERRES
    61   29   99 1    
    62   30   31 2    
    63   30   32 1    
    64   32   33 1    
    65   32   34 1    
    66   32  100 1    
    67   33  101 1    
    68   33  102 1    
    69   33  103 1    
    70   34   35 am   BACKBONE|DICT|INTERRES
    71   34  104 1    
    72   35   36 2    
    73   37   38 2    
    74   37   39 am   BACKBONE|DICT|INTERRES
    75   39   40 1    
    76   39  105 1    
    77   40   41 1    
    78   40   42 1    
    79   40  106 1    
    80   41  107 1    
    81   41  108 1    
    82   41  109 1    
    83   42   43 2    
    84   42   44 am   BACKBONE|DICT|INTERRES
    85   44   45 1    
    86   44  110 1    
    87   45   46 1    
    88   45   47 1    
    89   45  111 1    
    90   46  112 1    
    91   46  113 1    
    92   46  114 1    
    93   47   48 2    
    94   47   49 am   BACKBONE|DICT|INTERRES
    95   49   50 1    
    96   49  115 1    
    97   50   51 1    
    98   50   52 1    
    99   50  116 1    
   100   51  117 1    
   101   51  118 1    
   102   51  119 1    
   103   52   53 2    
   104   52   54 am   BACKBONE|DICT|INTERRES
   105   54   55 1    
   106   54  120 1    
   107   55   56 1    
   108   55   57 1    
   109   55  121 1    
   110   56  122 1    
   111   56  123 1    
   112   56  124 1    
   113   57   58 2    
   114   57   59 am   BACKBONE|DICT|INTERRES
   115   59   60 1    
   116   59  125 1    
   117   60   61 1    
   118   60   62 1    
   119   60  126 1    
   120   61  127 1    
   121   61  128 1    
   122   61  129 1    
   123   62   63 2    
   124   62   64 am   BACKBONE|DICT|INTERRES
   125   64   65 1    
   126   64  130 1    
   127   65   66 1    
   128   65   69 1    
   129   65  131 1    
   130   66   67 am   BACKBONE|DICT|INTERRES
   131   66   68 2    
   132   67  132 1    
   133   67  133 1    
   134   69   70 1    
   135   69  134 1    
   136   69  135 1    
   137   70   71 1    
   138   71  136 1    
   139   71  137 1    
@<TRIPOS>SUBSTRUCTURE
     1 UNK         1 GROUP             0       ****    0 ROOT    
