@<TRIPOS>MOLECULE
3R136
137   139    1
SMALL
USER_CHARGES


@<TRIPOS>ATOM
      1 CA         30.5425   23.1634   -3.5786 C.3       0 UNK        -0.1979 
      2 C          30.3076   24.5401   -2.9760 C.2       0 UNK         0.4864 
      3 O          30.2057   25.5237   -3.7117 O.2       0 UNK        -0.5359 
      4 N          30.2067   24.6212   -1.6429 N.am      1 UNK        -0.4318 
      5 CA         30.0063   25.8553   -0.8716 C.3       1 UNK         0.0824 
      6 C6         30.5071   25.7027    0.5840 C.3       12 UNK        -0.0944 
      7 S7         32.2960   25.3399    0.6570 S.3       12 UNK        -0.2672 
      8 C8         32.3439   23.8648    1.7277 C.3       12 UNK         0.0333 
      9 C9         31.6747   24.1072    3.0748 C.ar      12 UNK        -0.0807 
     10 C10        32.0811   25.1729    3.8832 C.ar      12 UNK        -0.0894 
     11 C11        31.4354   25.4431    5.0975 C.ar      12 UNK        -0.0804 
     12 C12        30.3983   24.6002    5.5080 C.ar      12 UNK        -0.0824 
     13 C13        29.9833   23.5280    4.7114 C.ar      12 UNK        -0.0762 
     14 C14        30.6289   23.2831    3.4977 C.ar      12 UNK        -0.0782 
     15 C15        28.8234   22.6452    5.1515 C.3       12 UNK         0.0230 
     16 S16        27.3115   22.9600    4.1805 S.3       12 UNK        -0.2608 
     17 C17        26.9957   24.7221    4.5346 C.3       12 UNK        -0.0989 
     18 CA         27.0295   25.5858    3.2404 C.3       5 UNK         0.0716 
     19 N          25.9107   25.3339    2.3186 N.am      5 UNK        -0.4135 
     20 C          24.6021   25.4724    2.5911 C.2       4 UNK         0.5031 
     21 O          24.1598   25.7506    3.7066 O.2       4 UNK        -0.5229 
     22 CA         23.5895   25.3071    1.4410 C.3       4 UNK         0.0329 
     23 CB         22.7429   26.5830    1.2816 C.3       4 UNK        -0.2001 
     24 N          24.1879   24.9979    0.1442 N.am      4 UNK        -0.4303 
     25 C          24.5856   23.7979   -0.2892 C.2       3 UNK         0.5044 
     26 O          24.5304   22.7752    0.3932 O.2       3 UNK        -0.5152 
     27 CA         25.1523   23.7211   -1.7230 C.3       3 UNK         0.0319 
     28 CB         24.0315   23.4510   -2.7453 C.3       3 UNK        -0.2001 
     29 N          25.9787   24.8735   -2.1224 N.am      3 UNK        -0.4354 
     30 C          25.6321   26.1628   -2.2742 C.2       2 UNK         0.4964 
     31 O          24.4744   26.5709   -2.1717 O.2       2 UNK        -0.5047 
     32 CA         26.7675   27.1755   -2.5333 C.3       2 UNK         0.0288 
     33 CB         26.4873   28.5403   -1.8684 C.3       2 UNK        -0.2113 
     34 N          28.1038   26.6960   -2.1540 N.am      2 UNK        -0.4145 
     35 C          28.5333   26.3111   -0.9421 C.2       1 UNK         0.5006 
     36 O          27.8119   26.2555    0.0589 O.2       1 UNK        -0.5103 
     37 C          27.1274   27.0986    3.5211 C.2       5 UNK         0.5055 
     38 O          26.9586   27.5369    4.6614 O.2       5 UNK        -0.5220 
     39 N          27.3548   27.8723    2.4538 N.am      6 UNK        -0.4450 
     40 CA         27.3913   29.3323    2.4634 C.3       6 UNK         0.0367 
     41 CB         25.9752   29.8690    2.1725 C.3       6 UNK        -0.1929 
     42 C          28.4234   29.8404    1.4464 C.2       6 UNK         0.5070 
     43 O          29.1075   29.0413    0.8051 O.2       6 UNK        -0.5237 
     44 N          28.5329   31.1709    1.3314 N.am      7 UNK        -0.4739 
     45 CA         29.3563   31.9535    0.3929 C.3       7 UNK         0.0276 
     46 CB         28.9878   31.6352   -1.0699 C.3       7 UNK        -0.1927 
     47 C          30.8810   31.8677    0.6001 C.2       7 UNK         0.5013 
     48 O          31.5634   32.8665    0.3693 O.2       7 UNK        -0.5193 
     49 N          31.3907   30.7032    1.0220 N.am      8 UNK        -0.4253 
     50 CA         32.8105   30.4325    1.2661 C.3       8 UNK         0.0242 
     51 CB         33.0046   28.9351    1.5511 C.3       8 UNK        -0.2000 
     52 C          33.4157   31.2927    2.3885 C.2       8 UNK         0.4948 
     53 O          34.5231   31.8055    2.2196 O.2       8 UNK        -0.5275 
     54 N          32.6718   31.4452    3.4958 N.am      9 UNK        -0.4246 
     55 CA         32.9230   32.2821    4.6822 C.3       9 UNK         0.0261 
     56 CB         32.9153   33.7779    4.3120 C.3       9 UNK        -0.1959 
     57 C          34.1801   31.9278    5.5012 C.2       9 UNK         0.5033 
     58 O          34.0815   31.7691    6.7191 O.2       9 UNK        -0.5390 
     59 N          35.3314   31.7902    4.8318 N.am      10 UNK        -0.4215 
     60 CA         36.6436   31.4658    5.4063 C.3       10 UNK         0.0240 
     61 CB         37.7118   31.5855    4.3072 C.3       10 UNK        -0.1982 
     62 C          36.7141   30.0816    6.0784 C.2       10 UNK         0.4970 
     63 O          37.6112   29.8476    6.8891 O.2       10 UNK        -0.4916 
     64 N          35.7627   29.2046    5.7420 N.am      11 UNK        -0.4279 
     65 CA         35.5054   27.9154    6.3914 C.3       11 UNK         0.1003 
     66 C          35.0278   28.0084    7.8728 C.2       11 UNK         0.5709 
     67 N          34.5719   29.1592    8.3579 N.am      11 UNK        -0.7358 
     68 O          35.0817   27.0160    8.5951 O.2       11 UNK        -0.4999 
     69 C69        34.5442   27.0619    5.5246 C.3       12 UNK        -0.0954 
     70 S70        32.9229   27.8666    5.2533 S.3       12 UNK        -0.2268 
     71 C71        31.7921   26.6363    5.9891 C.3       12 UNK         0.0203 
     72 H72        30.6091   22.3893   -2.8143 H         1 UNK         0.0888 
     73 H73        29.7272   22.9050   -4.2538 H         1 UNK         0.0888 
     74 H74        31.4716   23.1579   -4.1479 H         1 UNK         0.0888 
     75 H75        30.2919   23.7799   -1.0913 H         1 UNK         0.3017 
     76 H76        30.5974   26.6506   -1.3319 H         1 UNK         0.0873 
     77 H77        29.9435   24.9213    1.0962 H         1 UNK         0.0745 
     78 H78        30.3364   26.6210    1.1493 H         1 UNK         0.0745 
     79 H79        31.8742   23.0329    1.2007 H         1 UNK         0.0705 
     80 H80        33.3838   23.5802    1.8929 H         1 UNK         0.0705 
     81 H81        32.8852   25.8025    3.5323 H         1 UNK         0.1334 
     82 H82        29.8945   24.7960    6.4451 H         1 UNK         0.1417 
     83 H83        30.2997   22.4613    2.8761 H         1 UNK         0.1562 
     84 H84        28.6050   22.7900    6.2108 H         1 UNK         0.0748 
     85 H85        29.1038   21.5968    5.0395 H         1 UNK         0.0748 
     86 H86        27.7342   25.0815    5.2503 H         1 UNK         0.0940 
     87 H87        26.0430   24.8085    5.0564 H         1 UNK         0.0940 
     88 H88        27.9417   25.3269    2.6998 H         1 UNK         0.0703 
     89 H89        26.1785   25.1599    1.3594 H         1 UNK         0.3081 
     90 H90        22.9230   24.4874    1.7173 H         1 UNK         0.0719 
     91 H91        22.2163   26.8267    2.2053 H         1 UNK         0.0809 
     92 H92        23.3599   27.4441    1.0205 H         1 UNK         0.0809 
     93 H93        21.9876   26.4641    0.5045 H         1 UNK         0.0809 
     94 H94        24.2475   25.7621   -0.5246 H         1 UNK         0.2990 
     95 H95        25.8240   22.8613   -1.7414 H         1 UNK         0.0690 
     96 H96        24.4335   23.3284   -3.7510 H         1 UNK         0.0788 
     97 H97        23.2986   24.2578   -2.7729 H         1 UNK         0.0788 
     98 H98        23.4932   22.5352   -2.4976 H         1 UNK         0.0788 
     99 H99        26.9641   24.6701   -2.2067 H         1 UNK         0.2993 
    100 H100       26.7910   27.3284   -3.6132 H         1 UNK         0.0949 
    101 H101       26.3999   28.4477   -0.7860 H         1 UNK         0.0767 
    102 H102       27.2842   29.2529   -2.0783 H         1 UNK         0.0767 
    103 H103       25.5586   28.9786   -2.2356 H         1 UNK         0.0767 
    104 H104       28.7732   26.6049   -2.9149 H         1 UNK         0.3013 
    105 H105       27.5610   27.4371    1.5550 H         1 UNK         0.3121 
    106 H106       27.7143   29.6830    3.4459 H         1 UNK         0.0774 
    107 H107       25.6337   29.5871    1.1763 H         1 UNK         0.0815 
    108 H108       25.2519   29.4823    2.8908 H         1 UNK         0.0815 
    109 H109       25.9344   30.9564    2.2371 H         1 UNK         0.0815 
    110 H110       27.9588   31.7328    1.9454 H         1 UNK         0.2987 
    111 H111       29.0871   32.9958    0.5734 H         1 UNK         0.0949 
    112 H112       27.9187   31.7542   -1.2459 H         1 UNK         0.0806 
    113 H113       29.5059   32.3065   -1.7560 H         1 UNK         0.0806 
    114 H114       29.2633   30.6172   -1.3473 H         1 UNK         0.0806 
    115 H115       30.7397   29.9265    1.1075 H         1 UNK         0.3010 
    116 H116       33.3518   30.6738    0.3488 H         1 UNK         0.0829 
    117 H117       32.3910   28.5957    2.3859 H         1 UNK         0.0813 
    118 H118       34.0439   28.7080    1.7930 H         1 UNK         0.0813 
    119 H119       32.7379   28.3358    0.6808 H         1 UNK         0.0813 
    120 H120       31.7976   30.9389    3.5180 H         1 UNK         0.3038 
    121 H121       32.0713   32.1095    5.3423 H         1 UNK         0.0769 
    122 H122       31.9801   34.0602    3.8282 H         1 UNK         0.0811 
    123 H123       33.7308   34.0362    3.6358 H         1 UNK         0.0811 
    124 H124       33.0212   34.4008    5.2012 H         1 UNK         0.0811 
    125 H125       35.2797   31.8982    3.8180 H         1 UNK         0.3204 
    126 H126       36.8572   32.2082    6.1778 H         1 UNK         0.0748 
    127 H127       37.5303   30.8839    3.4918 H         1 UNK         0.0771 
    128 H128       37.7356   32.5905    3.8853 H         1 UNK         0.0771 
    129 H129       38.7073   31.3780    4.7025 H         1 UNK         0.0771 
    130 H130       35.0634   29.4964    5.0766 H         1 UNK         0.2980 
    131 H131       36.4610   27.3890    6.4241 H         1 UNK         0.0545 
    132 H132       34.2715   29.2030    9.3183 H         1 UNK         0.3459 
    133 H133       34.4976   29.9799    7.7685 H         1 UNK         0.3459 
    134 H134       34.4068   26.0726    5.9646 H         1 UNK         0.0616 
    135 H135       34.9942   26.8843    4.5467 H         1 UNK         0.0616 
    136 H136       30.8705   27.1603    6.2467 H         1 UNK         0.0634 
    137 H137       32.2113   26.2755    6.9295 H         1 UNK         0.0634 
@<TRIPOS>BOND
     1    1    2 1    
     2    1   72 1    
     3    1   73 1    
     4    1   74 1    
     5    2    3 2    
     6    2    4 am   BACKBONE|DICT|INTERRES
     7    4    5 1    
     8    4   75 1    
     9    5    6 1    
    10    5   35 1    
    11    5   76 1    
    12    6    7 1    
    13    6   77 1    
    14    6   78 1    
    15    7    8 1    
    16    8    9 1    
    17    8   79 1    
    18    8   80 1    
    19    9   10 ar   
    20    9   14 ar   
    21   10   11 ar   
    22   10   81 1    
    23   11   12 ar   
    24   11   71 1    
    25   12   13 ar   
    26   12   82 1    
    27   13   14 ar   
    28   13   15 1    
    29   14   83 1    
    30   15   16 1    
    31   15   84 1    
    32   15   85 1    
    33   16   17 1    
    34   17   18 1    
    35   17   86 1    
    36   17   87 1    
    37   18   19 1    
    38   18   37 1    
    39   18   88 1    
    40   19   20 am   BACKBONE|DICT|INTERRES
    41   19   89 1    
    42   20   21 2    
    43   20   22 1    
    44   22   23 1    
    45   22   24 1    
    46   22   90 1    
    47   23   91 1    
    48   23   92 1    
    49   23   93 1    
    50   24   25 am   BACKBONE|DICT|INTERRES
    51   24   94 1    
    52   25   26 2    
    53   25   27 1    
    54   27   28 1    
    55   27   29 1    
    56   27   95 1    
    57   28   96 1    
    58   28   97 1    
    59   28   98 1    
    60   29   30 am   BACKBONE|DICT|INTERRES
    61   29   99 1    
    62   30   31 2    
    63   30   32 1    
    64   32   33 1    
    65   32   34 1    
    66   32  100 1    
    67   33  101 1    
    68   33  102 1    
    69   33  103 1    
    70   34   35 am   BACKBONE|DICT|INTERRES
    71   34  104 1    
    72   35   36 2    
    73   37   38 2    
    74   37   39 am   BACKBONE|DICT|INTERRES
    75   39   40 1    
    76   39  105 1    
    77   40   41 1    
    78   40   42 1    
    79   40  106 1    
    80   41  107 1    
    81   41  108 1    
    82   41  109 1    
    83   42   43 2    
    84   42   44 am   BACKBONE|DICT|INTERRES
    85   44   45 1    
    86   44  110 1    
    87   45   46 1    
    88   45   47 1    
    89   45  111 1    
    90   46  112 1    
    91   46  113 1    
    92   46  114 1    
    93   47   48 2    
    94   47   49 am   BACKBONE|DICT|INTERRES
    95   49   50 1    
    96   49  115 1    
    97   50   51 1    
    98   50   52 1    
    99   50  116 1    
   100   51  117 1    
   101   51  118 1    
   102   51  119 1    
   103   52   53 2    
   104   52   54 am   BACKBONE|DICT|INTERRES
   105   54   55 1    
   106   54  120 1    
   107   55   56 1    
   108   55   57 1    
   109   55  121 1    
   110   56  122 1    
   111   56  123 1    
   112   56  124 1    
   113   57   58 2    
   114   57   59 am   BACKBONE|DICT|INTERRES
   115   59   60 1    
   116   59  125 1    
   117   60   61 1    
   118   60   62 1    
   119   60  126 1    
   120   61  127 1    
   121   61  128 1    
   122   61  129 1    
   123   62   63 2    
   124   62   64 am   BACKBONE|DICT|INTERRES
   125   64   65 1    
   126   64  130 1    
   127   65   66 1    
   128   65   69 1    
   129   65  131 1    
   130   66   67 am   BACKBONE|DICT|INTERRES
   131   66   68 2    
   132   67  132 1    
   133   67  133 1    
   134   69   70 1    
   135   69  134 1    
   136   69  135 1    
   137   70   71 1    
   138   71  136 1    
   139   71  137 1    
@<TRIPOS>SUBSTRUCTURE
     1 UNK         1 GROUP             0       ****    0 ROOT    
