@<TRIPOS>MOLECULE
3R136
137   139    1
SMALL
USER_CHARGES


@<TRIPOS>ATOM
      1 CA         31.4395   22.6286   -5.3986 C.3       0 UNK        -0.1979 
      2 C          30.5390   23.1753   -4.3002 C.2       0 UNK         0.4864 
      3 O          29.5791   23.8890   -4.5962 O.2       0 UNK        -0.5359 
      4 N          30.8462   22.8530   -3.0368 N.am      1 UNK        -0.4318 
      5 CA         30.0540   23.2318   -1.8628 C.3       1 UNK         0.0824 
      6 C6         30.9038   23.1567   -0.5699 C.3       12 UNK        -0.0944 
      7 S7         30.3020   24.2859    0.7315 S.3       12 UNK        -0.2672 
      8 C8         30.0580   23.1407    2.1243 C.3       12 UNK         0.0333 
      9 C9         30.0800   23.9042    3.4372 C.ar      12 UNK        -0.0807 
     10 C10        31.3049   24.2736    4.0001 C.ar      12 UNK        -0.0894 
     11 C11        31.3464   25.0265    5.1753 C.ar      12 UNK        -0.0804 
     12 C12        30.1501   25.4066    5.7898 C.ar      12 UNK        -0.0824 
     13 C13        28.9167   25.0413    5.2416 C.ar      12 UNK        -0.0762 
     14 C14        28.8894   24.2684    4.0734 C.ar      12 UNK        -0.0782 
     15 C15        27.6346   25.4868    5.9413 C.3       12 UNK         0.0230 
     16 S16        26.3004   26.0201    4.8168 S.3       12 UNK        -0.2608 
     17 C17        27.0822   27.3606    3.8484 C.3       12 UNK        -0.0989 
     18 CA         27.2450   26.9651    2.3551 C.3       5 UNK         0.0716 
     19 N          25.9965   26.5595    1.7005 N.am      5 UNK        -0.4135 
     20 C          24.8639   27.2656    1.5465 C.2       4 UNK         0.5031 
     21 O          24.7037   28.4256    1.9269 O.2       4 UNK        -0.5229 
     22 CA         23.6801   26.5518    0.8592 C.3       4 UNK         0.0329 
     23 CB         23.6095   26.9409   -0.6267 C.3       4 UNK        -0.2001 
     24 N          23.7385   25.0922    0.9677 N.am      4 UNK        -0.4303 
     25 C          23.5970   24.3967    2.1056 C.2       3 UNK         0.5044 
     26 O          23.2178   24.8966    3.1647 O.2       3 UNK        -0.5152 
     27 CA         23.9546   22.8947    2.0711 C.3       3 UNK         0.0319 
     28 CB         22.6852   22.0367    2.2035 C.3       3 UNK        -0.2001 
     29 N          24.7059   22.4510    0.8869 N.am      3 UNK        -0.4354 
     30 C          25.9066   22.9034    0.4988 C.2       2 UNK         0.4964 
     31 O          26.5302   23.7900    1.0902 O.2       2 UNK        -0.5047 
     32 CA         26.4725   22.3082   -0.7969 C.3       2 UNK         0.0288 
     33 CB         25.5413   22.5676   -1.9991 C.3       2 UNK        -0.2113 
     34 N          27.7742   22.9146   -1.0499 N.am      2 UNK        -0.4145 
     35 C          28.7707   22.3794   -1.7588 C.2       1 UNK         0.5006 
     36 O          28.7135   21.2669   -2.2918 O.2       1 UNK        -0.5103 
     37 C          27.9841   28.0359    1.5311 C.2       5 UNK         0.5055 
     38 O          27.6164   29.2125    1.5612 O.2       5 UNK        -0.5220 
     39 N          29.0181   27.6056    0.7941 N.am      6 UNK        -0.4450 
     40 CA         29.8580   28.4482   -0.0611 C.3       6 UNK         0.0367 
     41 CB         30.5756   27.5563   -1.0920 C.3       6 UNK        -0.1929 
     42 C          30.8408   29.2958    0.7700 C.2       6 UNK         0.5070 
     43 O          32.0402   29.0149    0.7884 O.2       6 UNK        -0.5237 
     44 N          30.3007   30.2998    1.4700 N.am      7 UNK        -0.4739 
     45 CA         31.0374   31.2349    2.3187 C.3       7 UNK         0.0276 
     46 CB         30.0380   32.1022    3.1001 C.3       7 UNK        -0.1927 
     47 C          32.0081   32.1180    1.5163 C.2       7 UNK         0.5013 
     48 O          31.6269   32.6566    0.4739 O.2       7 UNK        -0.5193 
     49 N          33.2252   32.2769    2.0414 N.am      8 UNK        -0.4253 
     50 CA         34.2961   33.1043    1.4926 C.3       8 UNK         0.0242 
     51 CB         35.0073   32.3634    0.3419 C.3       8 UNK        -0.2000 
     52 C          35.2334   33.4510    2.6538 C.2       8 UNK         0.4948 
     53 O          36.3235   32.8841    2.7578 O.2       8 UNK        -0.5275 
     54 N          34.7402   34.3006    3.5680 N.am      9 UNK        -0.4246 
     55 CA         35.2874   34.6393    4.8933 C.3       9 UNK         0.0261 
     56 CB         36.7067   35.2378    4.8138 C.3       9 UNK        -0.1959 
     57 C          35.2118   33.4561    5.8758 C.2       9 UNK         0.5033 
     58 O          34.5865   33.5810    6.9299 O.2       9 UNK        -0.5390 
     59 N          35.7891   32.3151    5.4838 N.am      10 UNK        -0.4215 
     60 CA         35.5130   31.0001    6.0590 C.3       10 UNK         0.0240 
     61 CB         36.6482   30.0393    5.6700 C.3       10 UNK        -0.1982 
     62 C          34.1643   30.4773    5.5352 C.2       10 UNK         0.4970 
     63 O          33.7302   30.8911    4.4571 O.2       10 UNK        -0.4916 
     64 N          33.5385   29.5737    6.2983 N.am      11 UNK        -0.4279 
     65 CA         32.2457   28.9294    5.9916 C.3       11 UNK         0.1003 
     66 C          31.0055   29.8752    6.0214 C.2       11 UNK         0.5709 
     67 N          31.1212   31.1136    6.4863 N.am      11 UNK        -0.7358 
     68 O          29.9060   29.4672    5.6566 O.2       11 UNK        -0.4999 
     69 C69        32.2861   28.0518    4.7052 C.3       12 UNK        -0.0954 
     70 S70        33.5301   26.7185    4.7786 S.3       12 UNK        -0.2268 
     71 C71        32.6823   25.4462    5.7726 C.3       12 UNK         0.0203 
     72 H72        32.2556   22.0286   -4.9963 H         1 UNK         0.0888 
     73 H73        30.8626   22.0030   -6.0792 H         1 UNK         0.0888 
     74 H74        31.8722   23.4481   -5.9719 H         1 UNK         0.0888 
     75 H75        31.6248   22.2346   -2.8598 H         1 UNK         0.3017 
     76 H76        29.7488   24.2705   -2.0122 H         1 UNK         0.0873 
     77 H77        30.9746   22.1317   -0.2004 H         1 UNK         0.0745 
     78 H78        31.9299   23.4634   -0.7804 H         1 UNK         0.0745 
     79 H79        29.1151   22.6065    1.9958 H         1 UNK         0.0705 
     80 H80        30.8478   22.3881    2.1346 H         1 UNK         0.0705 
     81 H81        32.2281   23.9980    3.5084 H         1 UNK         0.1334 
     82 H82        30.1804   25.9993    6.6940 H         1 UNK         0.1417 
     83 H83        27.9415   23.9774    3.6399 H         1 UNK         0.1562 
     84 H84        27.8410   26.3080    6.6298 H         1 UNK         0.0748 
     85 H85        27.2665   24.6601    6.5500 H         1 UNK         0.0748 
     86 H86        28.0515   27.6093    4.2857 H         1 UNK         0.0940 
     87 H87        26.4716   28.2596    3.9472 H         1 UNK         0.0940 
     88 H88        27.8687   26.0720    2.3316 H         1 UNK         0.0703 
     89 H89        26.0052   25.5995    1.3684 H         1 UNK         0.3081 
     90 H90        22.7636   26.8902    1.3474 H         1 UNK         0.0719 
     91 H91        24.4955   26.6150   -1.1731 H         1 UNK         0.0809 
     92 H92        22.7352   26.5051   -1.1108 H         1 UNK         0.0809 
     93 H93        23.5356   28.0232   -0.7424 H         1 UNK         0.0809 
     94 H94        24.0221   24.5868    0.1419 H         1 UNK         0.2990 
     95 H95        24.5860   22.7060    2.9418 H         1 UNK         0.0690 
     96 H96        22.9278   20.9774    2.2907 H         1 UNK         0.0788 
     97 H97        22.0229   22.1621    1.3460 H         1 UNK         0.0788 
     98 H98        22.1185   22.3096    3.0951 H         1 UNK         0.0788 
     99 H99        24.2641   21.7334    0.3297 H         1 UNK         0.2993 
    100 H100       26.5965   21.2334   -0.6463 H         1 UNK         0.0949 
    101 H101       24.5690   22.0922   -1.8660 H         1 UNK         0.0767 
    102 H102       25.3691   23.6340   -2.1519 H         1 UNK         0.0767 
    103 H103       25.9645   22.1664   -2.9204 H         1 UNK         0.0767 
    104 H104       27.9307   23.7762   -0.5406 H         1 UNK         0.3013 
    105 H105       29.2889   26.6327    0.8552 H         1 UNK         0.3121 
    106 H106       29.2143   29.1366   -0.6133 H         1 UNK         0.0774 
    107 H107       29.8642   26.9977   -1.7004 H         1 UNK         0.0815 
    108 H108       31.1796   28.1587   -1.7716 H         1 UNK         0.0815 
    109 H109       31.2446   26.8398   -0.6140 H         1 UNK         0.0815 
    110 H110       29.2918   30.4015    1.4379 H         1 UNK         0.2987 
    111 H111       31.6058   30.6407    3.0335 H         1 UNK         0.0949 
    112 H112       30.5584   32.7703    3.7877 H         1 UNK         0.0806 
    113 H113       29.3613   31.4891    3.6958 H         1 UNK         0.0806 
    114 H114       29.4338   32.7205    2.4350 H         1 UNK         0.0806 
    115 H115       33.4465   31.7955    2.9146 H         1 UNK         0.3010 
    116 H116       33.8790   34.0369    1.1061 H         1 UNK         0.0829 
    117 H117       34.3299   32.1816   -0.4926 H         1 UNK         0.0813 
    118 H118       35.8441   32.9488   -0.0409 H         1 UNK         0.0813 
    119 H119       35.4014   31.3995    0.6667 H         1 UNK         0.0813 
    120 H120       33.8158   34.6713    3.3923 H         1 UNK         0.3038 
    121 H121       34.6333   35.4175    5.2900 H         1 UNK         0.0769 
    122 H122       37.4447   34.5164    4.4628 H         1 UNK         0.0811 
    123 H123       37.0357   35.5801    5.7958 H         1 UNK         0.0811 
    124 H124       36.7358   36.0979    4.1449 H         1 UNK         0.0811 
    125 H125       36.2017   32.3231    4.5532 H         1 UNK         0.3204 
    126 H126       35.4694   31.0840    7.1470 H         1 UNK         0.0748 
    127 H127       37.6117   30.3965    6.0344 H         1 UNK         0.0771 
    128 H128       36.4879   29.0479    6.0959 H         1 UNK         0.0771 
    129 H129       36.7223   29.9209    4.5878 H         1 UNK         0.0771 
    130 H130       33.9639   29.2957    7.1707 H         1 UNK         0.2980 
    131 H131       32.0680   28.2541    6.8285 H         1 UNK         0.0545 
    132 H132       32.0111   31.4643    6.8013 H         1 UNK         0.3459 
    133 H133       30.3047   31.7022    6.5205 H         1 UNK         0.3459 
    134 H134       32.5140   28.6605    3.8306 H         1 UNK         0.0616 
    135 H135       31.3117   27.6116    4.4936 H         1 UNK         0.0616 
    136 H136       33.3311   24.5727    5.8493 H         1 UNK         0.0634 
    137 H137       32.5525   25.8176    6.7901 H         1 UNK         0.0634 
@<TRIPOS>BOND
     1    1    2 1    
     2    1   72 1    
     3    1   73 1    
     4    1   74 1    
     5    2    3 2    
     6    2    4 am   BACKBONE|DICT|INTERRES
     7    4    5 1    
     8    4   75 1    
     9    5    6 1    
    10    5   35 1    
    11    5   76 1    
    12    6    7 1    
    13    6   77 1    
    14    6   78 1    
    15    7    8 1    
    16    8    9 1    
    17    8   79 1    
    18    8   80 1    
    19    9   10 ar   
    20    9   14 ar   
    21   10   11 ar   
    22   10   81 1    
    23   11   12 ar   
    24   11   71 1    
    25   12   13 ar   
    26   12   82 1    
    27   13   14 ar   
    28   13   15 1    
    29   14   83 1    
    30   15   16 1    
    31   15   84 1    
    32   15   85 1    
    33   16   17 1    
    34   17   18 1    
    35   17   86 1    
    36   17   87 1    
    37   18   19 1    
    38   18   37 1    
    39   18   88 1    
    40   19   20 am   BACKBONE|DICT|INTERRES
    41   19   89 1    
    42   20   21 2    
    43   20   22 1    
    44   22   23 1    
    45   22   24 1    
    46   22   90 1    
    47   23   91 1    
    48   23   92 1    
    49   23   93 1    
    50   24   25 am   BACKBONE|DICT|INTERRES
    51   24   94 1    
    52   25   26 2    
    53   25   27 1    
    54   27   28 1    
    55   27   29 1    
    56   27   95 1    
    57   28   96 1    
    58   28   97 1    
    59   28   98 1    
    60   29   30 am   BACKBONE|DICT|INTERRES
    61   29   99 1    
    62   30   31 2    
    63   30   32 1    
    64   32   33 1    
    65   32   34 1    
    66   32  100 1    
    67   33  101 1    
    68   33  102 1    
    69   33  103 1    
    70   34   35 am   BACKBONE|DICT|INTERRES
    71   34  104 1    
    72   35   36 2    
    73   37   38 2    
    74   37   39 am   BACKBONE|DICT|INTERRES
    75   39   40 1    
    76   39  105 1    
    77   40   41 1    
    78   40   42 1    
    79   40  106 1    
    80   41  107 1    
    81   41  108 1    
    82   41  109 1    
    83   42   43 2    
    84   42   44 am   BACKBONE|DICT|INTERRES
    85   44   45 1    
    86   44  110 1    
    87   45   46 1    
    88   45   47 1    
    89   45  111 1    
    90   46  112 1    
    91   46  113 1    
    92   46  114 1    
    93   47   48 2    
    94   47   49 am   BACKBONE|DICT|INTERRES
    95   49   50 1    
    96   49  115 1    
    97   50   51 1    
    98   50   52 1    
    99   50  116 1    
   100   51  117 1    
   101   51  118 1    
   102   51  119 1    
   103   52   53 2    
   104   52   54 am   BACKBONE|DICT|INTERRES
   105   54   55 1    
   106   54  120 1    
   107   55   56 1    
   108   55   57 1    
   109   55  121 1    
   110   56  122 1    
   111   56  123 1    
   112   56  124 1    
   113   57   58 2    
   114   57   59 am   BACKBONE|DICT|INTERRES
   115   59   60 1    
   116   59  125 1    
   117   60   61 1    
   118   60   62 1    
   119   60  126 1    
   120   61  127 1    
   121   61  128 1    
   122   61  129 1    
   123   62   63 2    
   124   62   64 am   BACKBONE|DICT|INTERRES
   125   64   65 1    
   126   64  130 1    
   127   65   66 1    
   128   65   69 1    
   129   65  131 1    
   130   66   67 am   BACKBONE|DICT|INTERRES
   131   66   68 2    
   132   67  132 1    
   133   67  133 1    
   134   69   70 1    
   135   69  134 1    
   136   69  135 1    
   137   70   71 1    
   138   71  136 1    
   139   71  137 1    
@<TRIPOS>SUBSTRUCTURE
     1 UNK         1 GROUP             0       ****    0 ROOT    
