@<TRIPOS>MOLECULE
3R136
137   139    1
SMALL
USER_CHARGES


@<TRIPOS>ATOM
      1 CA         30.7324   22.7653   -4.1769 C.3       0 UNK        -0.1979 
      2 C          30.0199   23.0759   -2.8700 C.2       0 UNK         0.4864 
      3 O          29.4639   24.1648   -2.7225 O.2       0 UNK        -0.5359 
      4 N          30.0154   22.1206   -1.9276 N.am      1 UNK        -0.4318 
      5 CA         29.4348   22.2406   -0.5815 C.3       1 UNK         0.0824 
      6 C6         29.6573   20.9584    0.2571 C.3       12 UNK        -0.0944 
      7 S7         31.3974   20.4964    0.6038 S.3       12 UNK        -0.2672 
      8 C8         32.3463   22.0642    0.6897 C.3       12 UNK         0.0333 
      9 C9         32.0191   23.0140    1.8483 C.ar      12 UNK        -0.0807 
     10 C10        32.7169   24.2252    1.9245 C.ar      12 UNK        -0.0894 
     11 C11        32.4546   25.1484    2.9429 C.ar      12 UNK        -0.0804 
     12 C12        31.4737   24.8523    3.8935 C.ar      12 UNK        -0.0824 
     13 C13        30.7575   23.6560    3.8302 C.ar      12 UNK        -0.0762 
     14 C14        31.0518   22.7337    2.8228 C.ar      12 UNK        -0.0782 
     15 C15        29.6566   23.3504    4.8371 C.3       12 UNK         0.0230 
     16 S16        28.0097   23.4909    4.0663 S.3       12 UNK        -0.2608 
     17 C17        27.3614   25.0904    4.6739 C.3       12 UNK        -0.0989 
     18 CA         28.2457   26.3353    4.3802 C.3       5 UNK         0.0716 
     19 N          28.6691   26.4523    2.9782 N.am      5 UNK        -0.4135 
     20 C          27.8894   26.6753    1.9100 C.2       4 UNK         0.5031 
     21 O          26.6649   26.8101    1.9625 O.2       4 UNK        -0.5229 
     22 CA         28.6111   26.8101    0.5570 C.3       4 UNK         0.0329 
     23 CB         29.9776   26.0971    0.5128 C.3       4 UNK        -0.2001 
     24 N          27.7730   26.2834   -0.5186 N.am      4 UNK        -0.4303 
     25 C          27.3102   26.9928   -1.5577 C.2       3 UNK         0.5044 
     26 O          27.5082   28.2014   -1.6969 O.2       3 UNK        -0.5152 
     27 CA         26.5082   26.2467   -2.6430 C.3       3 UNK         0.0319 
     28 CB         27.0510   26.5636   -4.0486 C.3       3 UNK        -0.2001 
     29 N          26.5444   24.7959   -2.4542 N.am      3 UNK        -0.4354 
     30 C          25.5180   24.0436   -2.0333 C.2       2 UNK         0.4964 
     31 O          24.3915   24.4871   -1.8078 O.2       2 UNK        -0.5047 
     32 CA         25.7804   22.5391   -1.8155 C.3       2 UNK         0.0288 
     33 CB         25.2433   21.7240   -3.0036 C.3       2 UNK        -0.2113 
     34 N          27.1898   22.1949   -1.6004 N.am      2 UNK        -0.4145 
     35 C          27.9402   22.6262   -0.5754 C.2       1 UNK         0.5006 
     36 O          27.5080   23.3459    0.3249 O.2       1 UNK        -0.5103 
     37 C          27.6260   27.6527    4.8995 C.2       5 UNK         0.5055 
     38 O          26.5664   27.6383    5.5300 O.2       5 UNK        -0.5220 
     39 N          28.3029   28.7727    4.6188 N.am      6 UNK        -0.4450 
     40 CA         27.9138   30.1243    5.0050 C.3       6 UNK         0.0367 
     41 CB         26.9438   30.7011    3.9571 C.3       6 UNK        -0.1929 
     42 C          29.1765   30.9843    5.1072 C.2       6 UNK         0.5070 
     43 O          30.2219   30.6078    4.5671 O.2       6 UNK        -0.5237 
     44 N          29.0579   32.1464    5.7628 N.am      7 UNK        -0.4739 
     45 CA         30.1315   33.1407    5.9051 C.3       7 UNK         0.0276 
     46 CB         29.6700   34.2635    6.8470 C.3       7 UNK        -0.1927 
     47 C          30.6050   33.7232    4.5616 C.2       7 UNK         0.5013 
     48 O          31.7870   34.0346    4.4170 O.2       7 UNK        -0.5193 
     49 N          29.6918   33.7917    3.5817 N.am      8 UNK        -0.4253 
     50 CA         29.9656   34.1647    2.1902 C.3       8 UNK         0.0242 
     51 CB         28.6332   34.2891    1.4334 C.3       8 UNK        -0.2000 
     52 C          30.9097   33.1902    1.4577 C.2       8 UNK         0.4948 
     53 O          31.5448   33.5946    0.4837 O.2       8 UNK        -0.5275 
     54 N          31.0043   31.9448    1.9452 N.am      9 UNK        -0.4246 
     55 CA         31.9251   30.9141    1.4658 C.3       9 UNK         0.0261 
     56 CB         31.1498   29.5939    1.3100 C.3       9 UNK        -0.1959 
     57 C          33.1384   30.7541    2.4025 C.2       9 UNK         0.5033 
     58 O          33.8043   29.7208    2.3445 O.2       9 UNK        -0.5390 
     59 N          33.3953   31.7475    3.2688 N.am      10 UNK        -0.4215 
     60 CA         34.4792   31.8616    4.2567 C.3       10 UNK         0.0240 
     61 CB         35.8674   31.7866    3.5900 C.3       10 UNK        -0.1982 
     62 C          34.3855   30.8964    5.4530 C.2       10 UNK         0.4970 
     63 O          34.8237   31.2688    6.5423 O.2       10 UNK        -0.4916 
     64 N          33.8279   29.6970    5.2512 N.am      11 UNK        -0.4279 
     65 CA         33.6205   28.6723    6.2869 C.3       11 UNK         0.1003 
     66 C          32.6695   29.1087    7.4365 C.2       11 UNK         0.5709 
     67 N          31.6624   29.9317    7.1718 N.am      11 UNK        -0.7358 
     68 O          32.8496   28.6933    8.5786 O.2       11 UNK        -0.4999 
     69 C69        33.1318   27.3324    5.6840 C.3       12 UNK        -0.0954 
     70 S70        34.2782   26.6349    4.4455 S.3       12 UNK        -0.2268 
     71 C71        33.2021   26.4780    2.9836 C.3       12 UNK         0.0203 
     72 H72        31.1701   21.7672   -4.1765 H         1 UNK         0.0888 
     73 H73        30.0325   22.8296   -5.0095 H         1 UNK         0.0888 
     74 H74        31.5314   23.4864   -4.3467 H         1 UNK         0.0888 
     75 H75        30.4883   21.2470   -2.1132 H         1 UNK         0.3017 
     76 H76        29.9466   23.0674   -0.0934 H         1 UNK         0.0873 
     77 H77        29.1884   20.1064   -0.2389 H         1 UNK         0.0745 
     78 H78        29.1467   21.0427    1.2181 H         1 UNK         0.0745 
     79 H79        33.4005   21.7954    0.7703 H         1 UNK         0.0705 
     80 H80        32.2513   22.5973   -0.2567 H         1 UNK         0.0705 
     81 H81        33.4654   24.4540    1.1778 H         1 UNK         0.1334 
     82 H82        31.2654   25.5507    4.6871 H         1 UNK         0.1417 
     83 H83        30.5032   21.8051    2.8078 H         1 UNK         0.1562 
     84 H84        29.7250   23.9958    5.7138 H         1 UNK         0.0748 
     85 H85        29.7834   22.3308    5.2041 H         1 UNK         0.0748 
     86 H86        27.1938   24.9941    5.7483 H         1 UNK         0.0940 
     87 H87        26.3725   25.2245    4.2312 H         1 UNK         0.0940 
     88 H88        29.1566   26.2229    4.9647 H         1 UNK         0.0703 
     89 H89        29.6538   26.3121    2.8098 H         1 UNK         0.3081 
     90 H90        28.7838   27.8768    0.4086 H         1 UNK         0.0719 
     91 H91        29.9091   25.0752    0.8839 H         1 UNK         0.0809 
     92 H92        30.3727   26.0551   -0.5028 H         1 UNK         0.0809 
     93 H93        30.7186   26.6190    1.1165 H         1 UNK         0.0809 
     94 H94        27.5047   25.3101   -0.4259 H         1 UNK         0.2990 
     95 H95        25.4820   26.6147   -2.5861 H         1 UNK         0.0690 
     96 H96        26.4764   26.0504   -4.8199 H         1 UNK         0.0788 
     97 H97        28.0947   26.2633   -4.1522 H         1 UNK         0.0788 
     98 H98        26.9945   27.6317   -4.2627 H         1 UNK         0.0788 
     99 H99        27.4552   24.3652   -2.5894 H         1 UNK         0.2993 
    100 H100       25.2296   22.2456   -0.9191 H         1 UNK         0.0949 
    101 H101       25.3356   20.6524   -2.8251 H         1 UNK         0.0767 
    102 H102       24.1857   21.9316   -3.1737 H         1 UNK         0.0767 
    103 H103       25.7742   21.9595   -3.9270 H         1 UNK         0.0767 
    104 H104       27.6302   21.6207   -2.3046 H         1 UNK         0.3013 
    105 H105       29.2026   28.7237    4.1586 H         1 UNK         0.3121 
    106 H106       27.4336   30.1014    5.9858 H         1 UNK         0.0774 
    107 H107       26.6214   31.7078    4.2250 H         1 UNK         0.0815 
    108 H108       27.4035   30.7544    2.9691 H         1 UNK         0.0815 
    109 H109       26.0453   30.0897    3.8714 H         1 UNK         0.0815 
    110 H110       28.1688   32.3792    6.1832 H         1 UNK         0.2987 
    111 H111       30.9913   32.6449    6.3608 H         1 UNK         0.0949 
    112 H112       28.7953   34.7860    6.4576 H         1 UNK         0.0806 
    113 H113       29.4186   33.8751    7.8341 H         1 UNK         0.0806 
    114 H114       30.4582   35.0052    6.9848 H         1 UNK         0.0806 
    115 H115       28.7450   33.5193    3.8012 H         1 UNK         0.3010 
    116 H116       30.4514   35.1429    2.1979 H         1 UNK         0.0829 
    117 H117       27.9849   35.0378    1.8891 H         1 UNK         0.0813 
    118 H118       28.7989   34.5945    0.3991 H         1 UNK         0.0813 
    119 H119       28.0914   33.3426    1.4102 H         1 UNK         0.0813 
    120 H120       30.4795   31.7019    2.7781 H         1 UNK         0.3038 
    121 H121       32.3193   31.1878    0.4851 H         1 UNK         0.0769 
    122 H122       30.2925   29.7206    0.6494 H         1 UNK         0.0811 
    123 H123       30.7874   29.2212    2.2680 H         1 UNK         0.0811 
    124 H124       31.7816   28.8205    0.8716 H         1 UNK         0.0811 
    125 H125       32.7495   32.5293    3.2834 H         1 UNK         0.3204 
    126 H126       34.3758   32.8652    4.6728 H         1 UNK         0.0748 
    127 H127       36.6565   31.9999    4.3122 H         1 UNK         0.0771 
    128 H128       36.0696   30.7984    3.1758 H         1 UNK         0.0771 
    129 H129       35.9604   32.5147    2.7842 H         1 UNK         0.0771 
    130 H130       33.5744   29.4489    4.3013 H         1 UNK         0.2980 
    131 H131       34.5946   28.4908    6.7451 H         1 UNK         0.0545 
    132 H132       31.0534   30.2141    7.9221 H         1 UNK         0.3459 
    133 H133       31.4780   30.2314    6.2234 H         1 UNK         0.3459 
    134 H134       32.1481   27.4834    5.2386 H         1 UNK         0.0616 
    135 H135       33.0044   26.5816    6.4664 H         1 UNK         0.0616 
    136 H136       33.8260   26.5891    2.0955 H         1 UNK         0.0634 
    137 H137       32.4915   27.3041    2.9501 H         1 UNK         0.0634 
@<TRIPOS>BOND
     1    1    2 1    
     2    1   72 1    
     3    1   73 1    
     4    1   74 1    
     5    2    3 2    
     6    2    4 am   BACKBONE|DICT|INTERRES
     7    4    5 1    
     8    4   75 1    
     9    5    6 1    
    10    5   35 1    
    11    5   76 1    
    12    6    7 1    
    13    6   77 1    
    14    6   78 1    
    15    7    8 1    
    16    8    9 1    
    17    8   79 1    
    18    8   80 1    
    19    9   10 ar   
    20    9   14 ar   
    21   10   11 ar   
    22   10   81 1    
    23   11   12 ar   
    24   11   71 1    
    25   12   13 ar   
    26   12   82 1    
    27   13   14 ar   
    28   13   15 1    
    29   14   83 1    
    30   15   16 1    
    31   15   84 1    
    32   15   85 1    
    33   16   17 1    
    34   17   18 1    
    35   17   86 1    
    36   17   87 1    
    37   18   19 1    
    38   18   37 1    
    39   18   88 1    
    40   19   20 am   BACKBONE|DICT|INTERRES
    41   19   89 1    
    42   20   21 2    
    43   20   22 1    
    44   22   23 1    
    45   22   24 1    
    46   22   90 1    
    47   23   91 1    
    48   23   92 1    
    49   23   93 1    
    50   24   25 am   BACKBONE|DICT|INTERRES
    51   24   94 1    
    52   25   26 2    
    53   25   27 1    
    54   27   28 1    
    55   27   29 1    
    56   27   95 1    
    57   28   96 1    
    58   28   97 1    
    59   28   98 1    
    60   29   30 am   BACKBONE|DICT|INTERRES
    61   29   99 1    
    62   30   31 2    
    63   30   32 1    
    64   32   33 1    
    65   32   34 1    
    66   32  100 1    
    67   33  101 1    
    68   33  102 1    
    69   33  103 1    
    70   34   35 am   BACKBONE|DICT|INTERRES
    71   34  104 1    
    72   35   36 2    
    73   37   38 2    
    74   37   39 am   BACKBONE|DICT|INTERRES
    75   39   40 1    
    76   39  105 1    
    77   40   41 1    
    78   40   42 1    
    79   40  106 1    
    80   41  107 1    
    81   41  108 1    
    82   41  109 1    
    83   42   43 2    
    84   42   44 am   BACKBONE|DICT|INTERRES
    85   44   45 1    
    86   44  110 1    
    87   45   46 1    
    88   45   47 1    
    89   45  111 1    
    90   46  112 1    
    91   46  113 1    
    92   46  114 1    
    93   47   48 2    
    94   47   49 am   BACKBONE|DICT|INTERRES
    95   49   50 1    
    96   49  115 1    
    97   50   51 1    
    98   50   52 1    
    99   50  116 1    
   100   51  117 1    
   101   51  118 1    
   102   51  119 1    
   103   52   53 2    
   104   52   54 am   BACKBONE|DICT|INTERRES
   105   54   55 1    
   106   54  120 1    
   107   55   56 1    
   108   55   57 1    
   109   55  121 1    
   110   56  122 1    
   111   56  123 1    
   112   56  124 1    
   113   57   58 2    
   114   57   59 am   BACKBONE|DICT|INTERRES
   115   59   60 1    
   116   59  125 1    
   117   60   61 1    
   118   60   62 1    
   119   60  126 1    
   120   61  127 1    
   121   61  128 1    
   122   61  129 1    
   123   62   63 2    
   124   62   64 am   BACKBONE|DICT|INTERRES
   125   64   65 1    
   126   64  130 1    
   127   65   66 1    
   128   65   69 1    
   129   65  131 1    
   130   66   67 am   BACKBONE|DICT|INTERRES
   131   66   68 2    
   132   67  132 1    
   133   67  133 1    
   134   69   70 1    
   135   69  134 1    
   136   69  135 1    
   137   70   71 1    
   138   71  136 1    
   139   71  137 1    
@<TRIPOS>SUBSTRUCTURE
     1 UNK         1 GROUP             0       ****    0 ROOT    
