@<TRIPOS>MOLECULE
3R136
137   139    1
SMALL
USER_CHARGES


@<TRIPOS>ATOM
      1 CA         32.7179   19.4557    0.0260 C.3       0 UNK        -0.1979 
      2 C          32.4452   20.8850   -0.4179 C.2       0 UNK         0.4864 
      3 O          33.0705   21.3610   -1.3666 O.2       0 UNK        -0.5359 
      4 N          31.5234   21.5735    0.2657 N.am      1 UNK        -0.4318 
      5 CA         31.0655   22.9261   -0.0618 C.3       1 UNK         0.0824 
      6 C6         30.3680   23.6220    1.1363 C.3       12 UNK        -0.0944 
      7 S7         29.2385   22.5687    2.1206 S.3       12 UNK        -0.2672 
      8 C8         30.1563   22.3791    3.6874 C.3       12 UNK         0.0333 
      9 C9         29.9864   23.5853    4.6035 C.ar      12 UNK        -0.0807 
     10 C10        30.8252   24.6949    4.4706 C.ar      12 UNK        -0.0894 
     11 C11        30.6493   25.8200    5.2755 C.ar      12 UNK        -0.0804 
     12 C12        29.6798   25.8045    6.2794 C.ar      12 UNK        -0.0824 
     13 C13        28.8447   24.6939    6.4431 C.ar      12 UNK        -0.0762 
     14 C14        28.9957   23.5919    5.5926 C.ar      12 UNK        -0.0782 
     15 C15        27.7939   24.6717    7.5484 C.3       12 UNK         0.0230 
     16 S16        26.7983   26.1984    7.6255 S.3       12 UNK        -0.2608 
     17 C17        25.8473   26.1069    6.0709 C.3       12 UNK        -0.0989 
     18 CA         26.4350   26.9600    4.9170 C.3       5 UNK         0.0716 
     19 N          25.7210   26.6844    3.6675 N.am      5 UNK        -0.4135 
     20 C          26.0145   27.1929    2.4634 C.2       4 UNK         0.5031 
     21 O          26.9580   27.9560    2.2412 O.2       4 UNK        -0.5229 
     22 CA         25.0538   26.7983    1.3247 C.3       4 UNK         0.0329 
     23 CB         23.7535   27.6162    1.4094 C.3       4 UNK        -0.2001 
     24 N          25.6455   26.9974    0.0003 N.am      4 UNK        -0.4303 
     25 C          26.6808   26.3029   -0.4872 C.2       3 UNK         0.5044 
     26 O          27.1854   25.3329    0.0841 O.2       3 UNK        -0.5152 
     27 CA         27.2290   26.7842   -1.8406 C.3       3 UNK         0.0319 
     28 CB         27.6965   28.2482   -1.7664 C.3       3 UNK        -0.2001 
     29 N          28.3654   25.9606   -2.2456 N.am      3 UNK        -0.4354 
     30 C          28.3291   24.9962   -3.1714 C.2       2 UNK         0.4964 
     31 O          27.3356   24.7214   -3.8446 O.2       2 UNK        -0.5047 
     32 CA         29.6254   24.2041   -3.3893 C.3       2 UNK         0.0288 
     33 CB         30.5402   24.9367   -4.3849 C.3       2 UNK        -0.2113 
     34 N          30.3485   23.9992   -2.1341 N.am      2 UNK        -0.4145 
     35 C          30.1994   22.9348   -1.3370 C.2       1 UNK         0.5006 
     36 O          29.4383   21.9932   -1.5769 O.2       1 UNK        -0.5103 
     37 C          26.4266   28.4718    5.2365 C.2       5 UNK         0.5055 
     38 O          25.3517   29.0749    5.2962 O.2       5 UNK        -0.5220 
     39 N          27.6188   29.0463    5.4198 N.am      6 UNK        -0.4450 
     40 CA         27.8723   30.4666    5.6434 C.3       6 UNK         0.0367 
     41 CB         27.6846   31.2448    4.3210 C.3       6 UNK        -0.1929 
     42 C          29.2873   30.6117    6.2293 C.2       6 UNK         0.5070 
     43 O          29.7984   29.6617    6.8284 O.2       6 UNK        -0.5237 
     44 N          29.9098   31.7820    6.0375 N.am      7 UNK        -0.4739 
     45 CA         31.3399   31.9976    6.2700 C.3       7 UNK         0.0276 
     46 CB         31.6307   33.5065    6.2678 C.3       7 UNK        -0.1927 
     47 C          32.1593   31.2934    5.1765 C.2       7 UNK         0.5013 
     48 O          31.7412   31.3057    4.0170 O.2       7 UNK        -0.5193 
     49 N          33.3143   30.7253    5.5520 N.am      8 UNK        -0.4253 
     50 CA         34.1548   29.8411    4.7286 C.3       8 UNK         0.0242 
     51 CB         35.4274   29.4783    5.5106 C.3       8 UNK        -0.2000 
     52 C          34.5175   30.3546    3.3231 C.2       8 UNK         0.4948 
     53 O          34.6373   29.5459    2.4025 O.2       8 UNK        -0.5275 
     54 N          34.6547   31.6785    3.1724 N.am      9 UNK        -0.4246 
     55 CA         34.8980   32.3480    1.8926 C.3       9 UNK         0.0261 
     56 CB         35.2980   33.8085    2.1583 C.3       9 UNK        -0.1959 
     57 C          33.7051   32.2880    0.9175 C.2       9 UNK         0.5033 
     58 O          33.9246   32.3707   -0.2919 O.2       9 UNK        -0.5390 
     59 N          32.4774   32.1605    1.4407 N.am      10 UNK        -0.4215 
     60 CA         31.2411   32.1081    0.6580 C.3       10 UNK         0.0240 
     61 CB         30.1335   32.8559    1.4198 C.3       10 UNK        -0.1982 
     62 C          30.7963   30.6707    0.3413 C.2       10 UNK         0.4970 
     63 O          30.0285   30.4910   -0.6033 O.2       10 UNK        -0.4916 
     64 N          31.2636   29.6839    1.1192 N.am      11 UNK        -0.4279 
     65 CA         30.8967   28.2611    0.9903 C.3       11 UNK         0.1003 
     66 C          31.3852   27.5676   -0.3168 C.2       11 UNK         0.5709 
     67 N          32.3705   28.1074   -1.0231 N.am      11 UNK        -0.7358 
     68 O          30.8554   26.5268   -0.7035 O.2       11 UNK        -0.4999 
     69 C69        31.3261   27.4393    2.2335 C.3       12 UNK        -0.0954 
     70 S70        30.6865   28.1310    3.7936 S.3       12 UNK        -0.2268 
     71 C71        31.4819   27.0655    5.0358 C.3       12 UNK         0.0203 
     72 H72        32.0855   19.1614    0.8639 H         1 UNK         0.0888 
     73 H73        32.5320   18.7658   -0.7974 H         1 UNK         0.0888 
     74 H74        33.7583   19.3498    0.3325 H         1 UNK         0.0888 
     75 H75        31.0067   21.1229    1.0073 H         1 UNK         0.3017 
     76 H76        31.9588   23.5127   -0.2895 H         1 UNK         0.0873 
     77 H77        31.1512   24.0021    1.7849 H         1 UNK         0.0745 
     78 H78        29.8146   24.5066    0.8150 H         1 UNK         0.0745 
     79 H79        31.2133   22.2051    3.4803 H         1 UNK         0.0705 
     80 H80        29.7979   21.4807    4.1918 H         1 UNK         0.0705 
     81 H81        31.6080   24.7029    3.7282 H         1 UNK         0.1334 
     82 H82        29.5614   26.6687    6.9195 H         1 UNK         0.1417 
     83 H83        28.3495   22.7318    5.7055 H         1 UNK         0.1562 
     84 H84        28.3023   24.5403    8.5043 H         1 UNK         0.0748 
     85 H85        27.1250   23.8170    7.4372 H         1 UNK         0.0748 
     86 H86        24.8209   26.4125    6.2843 H         1 UNK         0.0940 
     87 H87        25.7859   25.0610    5.7656 H         1 UNK         0.0940 
     88 H88        27.4676   26.6481    4.7492 H         1 UNK         0.0703 
     89 H89        24.9038   26.0987    3.7499 H         1 UNK         0.3081 
     90 H90        24.8124   25.7384    1.4296 H         1 UNK         0.0719 
     91 H91        23.9441   28.6859    1.3121 H         1 UNK         0.0809 
     92 H92        23.0501   27.3275    0.6281 H         1 UNK         0.0809 
     93 H93        23.2509   27.4630    2.3652 H         1 UNK         0.0809 
     94 H94        25.3092   27.7913   -0.5239 H         1 UNK         0.2990 
     95 H95        26.4249   26.7124   -2.5758 H         1 UNK         0.0690 
     96 H96        28.4055   28.3987   -0.9535 H         1 UNK         0.0788 
     97 H97        26.8617   28.9289   -1.5980 H         1 UNK         0.0788 
     98 H98        28.1807   28.5602   -2.6920 H         1 UNK         0.0788 
     99 H99        29.2106   26.0783   -1.6962 H         1 UNK         0.2993 
    100 H100       29.3584   23.2371   -3.8220 H         1 UNK         0.0949 
    101 H101       30.8460   25.9147   -4.0106 H         1 UNK         0.0767 
    102 H102       31.4419   24.3596   -4.5912 H         1 UNK         0.0767 
    103 H103       30.0322   25.0954   -5.3372 H         1 UNK         0.0767 
    104 H104       30.9295   24.7663   -1.8152 H         1 UNK         0.3013 
    105 H105       28.4581   28.4793    5.4079 H         1 UNK         0.3121 
    106 H106       27.1675   30.8388    6.3888 H         1 UNK         0.0774 
    107 H107       27.7902   32.3202    4.4634 H         1 UNK         0.0815 
    108 H108       28.4133   30.9311    3.5725 H         1 UNK         0.0815 
    109 H109       26.6930   31.0832    3.8987 H         1 UNK         0.0815 
    110 H110       29.4329   32.4951    5.5060 H         1 UNK         0.2987 
    111 H111       31.6051   31.5834    7.2453 H         1 UNK         0.0949 
    112 H112       31.3881   33.9638    5.3076 H         1 UNK         0.0806 
    113 H113       31.0581   34.0218    7.0390 H         1 UNK         0.0806 
    114 H114       32.6857   33.7020    6.4644 H         1 UNK         0.0806 
    115 H115       33.5850   30.8056    6.5216 H         1 UNK         0.3010 
    116 H116       33.5842   28.9250    4.5777 H         1 UNK         0.0829 
    117 H117       35.1893   28.9711    6.4458 H         1 UNK         0.0813 
    118 H118       36.0628   28.8042    4.9341 H         1 UNK         0.0813 
    119 H119       36.0209   30.3622    5.7476 H         1 UNK         0.0813 
    120 H120       34.5332   32.2671    3.9837 H         1 UNK         0.3038 
    121 H121       35.7389   31.8476    1.4075 H         1 UNK         0.0769 
    122 H122       35.5145   34.3294    1.2244 H         1 UNK         0.0811 
    123 H123       36.1945   33.8694    2.7756 H         1 UNK         0.0811 
    124 H124       34.5032   34.3602    2.6620 H         1 UNK         0.0811 
    125 H125       32.3713   32.0298    2.4459 H         1 UNK         0.3204 
    126 H126       31.3895   32.6186   -0.2960 H         1 UNK         0.0748 
    127 H127       29.1987   32.8511    0.8573 H         1 UNK         0.0771 
    128 H128       29.9323   32.4015    2.3897 H         1 UNK         0.0771 
    129 H129       30.4044   33.8981    1.5891 H         1 UNK         0.0771 
    130 H130       31.8625   29.9174    1.8981 H         1 UNK         0.2980 
    131 H131       29.8064   28.2272    0.9534 H         1 UNK         0.0545 
    132 H132       32.8111   28.9586   -0.7133 H         1 UNK         0.3459 
    133 H133       32.6775   27.6581   -1.8702 H         1 UNK         0.3459 
    134 H134       30.9608   26.4158    2.1493 H         1 UNK         0.0616 
    135 H135       32.4146   27.3841    2.2964 H         1 UNK         0.0616 
    136 H136       32.4900   26.7976    4.7170 H         1 UNK         0.0634 
    137 H137       31.5909   27.6294    5.9635 H         1 UNK         0.0634 
@<TRIPOS>BOND
     1    1    2 1    
     2    1   72 1    
     3    1   73 1    
     4    1   74 1    
     5    2    3 2    
     6    2    4 am   BACKBONE|DICT|INTERRES
     7    4    5 1    
     8    4   75 1    
     9    5    6 1    
    10    5   35 1    
    11    5   76 1    
    12    6    7 1    
    13    6   77 1    
    14    6   78 1    
    15    7    8 1    
    16    8    9 1    
    17    8   79 1    
    18    8   80 1    
    19    9   10 ar   
    20    9   14 ar   
    21   10   11 ar   
    22   10   81 1    
    23   11   12 ar   
    24   11   71 1    
    25   12   13 ar   
    26   12   82 1    
    27   13   14 ar   
    28   13   15 1    
    29   14   83 1    
    30   15   16 1    
    31   15   84 1    
    32   15   85 1    
    33   16   17 1    
    34   17   18 1    
    35   17   86 1    
    36   17   87 1    
    37   18   19 1    
    38   18   37 1    
    39   18   88 1    
    40   19   20 am   BACKBONE|DICT|INTERRES
    41   19   89 1    
    42   20   21 2    
    43   20   22 1    
    44   22   23 1    
    45   22   24 1    
    46   22   90 1    
    47   23   91 1    
    48   23   92 1    
    49   23   93 1    
    50   24   25 am   BACKBONE|DICT|INTERRES
    51   24   94 1    
    52   25   26 2    
    53   25   27 1    
    54   27   28 1    
    55   27   29 1    
    56   27   95 1    
    57   28   96 1    
    58   28   97 1    
    59   28   98 1    
    60   29   30 am   BACKBONE|DICT|INTERRES
    61   29   99 1    
    62   30   31 2    
    63   30   32 1    
    64   32   33 1    
    65   32   34 1    
    66   32  100 1    
    67   33  101 1    
    68   33  102 1    
    69   33  103 1    
    70   34   35 am   BACKBONE|DICT|INTERRES
    71   34  104 1    
    72   35   36 2    
    73   37   38 2    
    74   37   39 am   BACKBONE|DICT|INTERRES
    75   39   40 1    
    76   39  105 1    
    77   40   41 1    
    78   40   42 1    
    79   40  106 1    
    80   41  107 1    
    81   41  108 1    
    82   41  109 1    
    83   42   43 2    
    84   42   44 am   BACKBONE|DICT|INTERRES
    85   44   45 1    
    86   44  110 1    
    87   45   46 1    
    88   45   47 1    
    89   45  111 1    
    90   46  112 1    
    91   46  113 1    
    92   46  114 1    
    93   47   48 2    
    94   47   49 am   BACKBONE|DICT|INTERRES
    95   49   50 1    
    96   49  115 1    
    97   50   51 1    
    98   50   52 1    
    99   50  116 1    
   100   51  117 1    
   101   51  118 1    
   102   51  119 1    
   103   52   53 2    
   104   52   54 am   BACKBONE|DICT|INTERRES
   105   54   55 1    
   106   54  120 1    
   107   55   56 1    
   108   55   57 1    
   109   55  121 1    
   110   56  122 1    
   111   56  123 1    
   112   56  124 1    
   113   57   58 2    
   114   57   59 am   BACKBONE|DICT|INTERRES
   115   59   60 1    
   116   59  125 1    
   117   60   61 1    
   118   60   62 1    
   119   60  126 1    
   120   61  127 1    
   121   61  128 1    
   122   61  129 1    
   123   62   63 2    
   124   62   64 am   BACKBONE|DICT|INTERRES
   125   64   65 1    
   126   64  130 1    
   127   65   66 1    
   128   65   69 1    
   129   65  131 1    
   130   66   67 am   BACKBONE|DICT|INTERRES
   131   66   68 2    
   132   67  132 1    
   133   67  133 1    
   134   69   70 1    
   135   69  134 1    
   136   69  135 1    
   137   70   71 1    
   138   71  136 1    
   139   71  137 1    
@<TRIPOS>SUBSTRUCTURE
     1 UNK         1 GROUP             0       ****    0 ROOT    
