@<TRIPOS>MOLECULE
3R136
137   139    1
SMALL
USER_CHARGES


@<TRIPOS>ATOM
      1 CA         31.0373   27.6275    3.1719 C.3       0 UNK        -0.1979 
      2 C          29.9303   26.6681    3.5722 C.2       0 UNK         0.4864 
      3 O          29.2492   26.9128    4.5690 O.2       0 UNK        -0.5359 
      4 N          29.7374   25.5831    2.8093 N.am      1 UNK        -0.4318 
      5 CA         28.6518   24.6236    3.0228 C.3       1 UNK         0.0824 
      6 C6         28.9566   23.2349    2.3990 C.3       12 UNK        -0.0944 
      7 S7         28.9442   23.1721    0.5712 S.3       12 UNK        -0.2672 
      8 C8         30.6706   22.7572    0.1785 C.3       12 UNK         0.0333 
      9 C9         31.6195   23.9083    0.4765 C.ar      12 UNK        -0.0807 
     10 C10        32.5561   23.8021    1.5061 C.ar      12 UNK        -0.0894 
     11 C11        33.4450   24.8482    1.7620 C.ar      12 UNK        -0.0804 
     12 C12        33.3936   26.0061    0.9802 C.ar      12 UNK        -0.0824 
     13 C13        32.4647   26.1300   -0.0585 C.ar      12 UNK        -0.0762 
     14 C14        31.5771   25.0708   -0.2979 C.ar      12 UNK        -0.0782 
     15 C15        32.4606   27.4249   -0.8769 C.3       12 UNK         0.0230 
     16 S16        31.4533   27.3791   -2.4007 S.3       12 UNK        -0.2608 
     17 C17        30.4020   28.8709   -2.2509 C.3       12 UNK        -0.0989 
     18 CA         29.0069   28.6522   -1.5858 C.3       5 UNK         0.0716 
     19 N          28.4397   27.3391   -1.9134 N.am      5 UNK        -0.4135 
     20 C          27.1623   26.9451   -1.8376 C.2       4 UNK         0.5031 
     21 O          26.2472   27.6632   -1.4294 O.2       4 UNK        -0.5229 
     22 CA         26.8354   25.5305   -2.3374 C.3       4 UNK         0.0329 
     23 CB         28.0469   24.7308   -2.8684 C.3       4 UNK        -0.2001 
     24 N          26.1609   24.7749   -1.2833 N.am      4 UNK        -0.4303 
     25 C          25.2297   23.8372   -1.5082 C.2       3 UNK         0.5044 
     26 O          24.8124   23.5527   -2.6324 O.2       3 UNK        -0.5152 
     27 CA         24.6743   23.0505   -0.3053 C.3       3 UNK         0.0319 
     28 CB         25.2161   21.6109   -0.3137 C.3       3 UNK        -0.2001 
     29 N          24.9736   23.6526    0.9931 N.am      3 UNK        -0.4354 
     30 C          24.3491   24.7177    1.5133 C.2       2 UNK         0.4964 
     31 O          23.4204   25.3052    0.9583 O.2       2 UNK        -0.5047 
     32 CA         24.8381   25.2101    2.8899 C.3       2 UNK         0.0288 
     33 CB         23.8960   24.7164    4.0003 C.3       2 UNK        -0.2113 
     34 N          26.2137   24.8144    3.2187 N.am      2 UNK        -0.4145 
     35 C          27.3042   25.2034    2.5425 C.2       1 UNK         0.5006 
     36 O          27.2636   25.9339    1.5488 O.2       1 UNK        -0.5103 
     37 C          28.9653   28.9938   -0.0769 C.2       5 UNK         0.5055 
     38 O          29.9902   29.3275    0.5191 O.2       5 UNK        -0.5220 
     39 N          27.7590   28.9822    0.5050 N.am      6 UNK        -0.4450 
     40 CA         27.4519   29.3572    1.8906 C.3       6 UNK         0.0367 
     41 CB         25.9420   29.2033    2.1246 C.3       6 UNK        -0.1929 
     42 C          27.9038   30.7794    2.2696 C.2       6 UNK         0.5070 
     43 O          28.2088   31.0288    3.4351 O.2       6 UNK        -0.5237 
     44 N          27.9919   31.6700    1.2704 N.am      7 UNK        -0.4739 
     45 CA         28.5192   33.0341    1.3679 C.3       7 UNK         0.0276 
     46 CB         28.3447   33.7328    0.0097 C.3       7 UNK        -0.1927 
     47 C          29.9864   33.1248    1.8337 C.2       7 UNK         0.5013 
     48 O          30.3883   34.1863    2.3114 O.2       7 UNK        -0.5193 
     49 N          30.7533   32.0270    1.7223 N.am      8 UNK        -0.4253 
     50 CA         32.0982   31.9052    2.2950 C.3       8 UNK         0.0242 
     51 CB         32.8211   30.7035    1.6649 C.3       8 UNK        -0.2000 
     52 C          32.1004   31.8072    3.8350 C.2       8 UNK         0.4948 
     53 O          33.1533   32.0142    4.4382 O.2       8 UNK        -0.5275 
     54 N          30.9414   31.5049    4.4442 N.am      9 UNK        -0.4246 
     55 CA         30.6145   31.4899    5.8783 C.3       9 UNK         0.0261 
     56 CB         30.7968   32.8890    6.4987 C.3       9 UNK        -0.1959 
     57 C          31.3164   30.4188    6.7337 C.2       9 UNK         0.5033 
     58 O          30.7102   29.9443    7.6958 O.2       9 UNK        -0.5390 
     59 N          32.5568   30.0576    6.3991 N.am      10 UNK        -0.4215 
     60 CA         33.3742   29.0727    7.0995 C.3       10 UNK         0.0240 
     61 CB         34.1959   29.7776    8.1952 C.3       10 UNK        -0.1982 
     62 C          34.2841   28.3511    6.1002 C.2       10 UNK         0.4970 
     63 O          34.4727   28.8298    4.9789 O.2       10 UNK        -0.4916 
     64 N          34.8376   27.2206    6.5451 N.am      11 UNK        -0.4279 
     65 CA         35.7870   26.3815    5.8047 C.3       11 UNK         0.1003 
     66 C          37.1320   26.2932    6.5697 C.2       11 UNK         0.5709 
     67 N          38.2389   26.1191    5.8607 N.am      11 UNK        -0.7358 
     68 O          37.1807   26.3505    7.7980 O.2       11 UNK        -0.4999 
     69 C69        35.2081   24.9655    5.5495 C.3       12 UNK        -0.0954 
     70 S70        33.7193   25.0086    4.4993 S.3       12 UNK        -0.2268 
     71 C71        34.4716   24.7162    2.8731 C.3       12 UNK         0.0203 
     72 H72        30.7165   28.6557    3.3370 H         1 UNK         0.0888 
     73 H73        31.9346   27.4478    3.7635 H         1 UNK         0.0888 
     74 H74        31.2871   27.5232    2.1182 H         1 UNK         0.0888 
     75 H75        30.3034   25.4285    1.9857 H         1 UNK         0.3017 
     76 H76        28.5715   24.4690    4.1014 H         1 UNK         0.0873 
     77 H77        29.9162   22.8717    2.7698 H         1 UNK         0.0745 
     78 H78        28.2236   22.5072    2.7516 H         1 UNK         0.0745 
     79 H79        30.9590   21.8561    0.7220 H         1 UNK         0.0705 
     80 H80        30.7371   22.5076   -0.8814 H         1 UNK         0.0705 
     81 H81        32.5988   22.9051    2.1092 H         1 UNK         0.1334 
     82 H82        34.0815   26.8165    1.1814 H         1 UNK         0.1417 
     83 H83        30.8452   25.1312   -1.0884 H         1 UNK         0.1562 
     84 H84        33.4848   27.6643   -1.1667 H         1 UNK         0.0748 
     85 H85        32.1346   28.2398   -0.2334 H         1 UNK         0.0748 
     86 H86        30.2361   29.2146   -3.2732 H         1 UNK         0.0940 
     87 H87        30.9659   29.6820   -1.7857 H         1 UNK         0.0940 
     88 H88        28.3416   29.3891   -2.0412 H         1 UNK         0.0703 
     89 H89        29.1185   26.6730   -2.2523 H         1 UNK         0.3081 
     90 H90        26.1432   25.6765   -3.1693 H         1 UNK         0.0719 
     91 H91        28.7796   24.5345   -2.0867 H         1 UNK         0.0809 
     92 H92        27.7326   23.7659   -3.2667 H         1 UNK         0.0809 
     93 H93        28.5494   25.2553   -3.6823 H         1 UNK         0.0809 
     94 H94        26.4264   25.0027   -0.3311 H         1 UNK         0.2990 
     95 H95        23.5892   23.0054   -0.4213 H         1 UNK         0.0690 
     96 H96        24.7805   21.0168    0.4899 H         1 UNK         0.0788 
     97 H97        26.3008   21.5874   -0.2008 H         1 UNK         0.0788 
     98 H98        24.9763   21.1079   -1.2516 H         1 UNK         0.0788 
     99 H99        25.7287   23.2375    1.5185 H         1 UNK         0.2993 
    100 H100       24.8003   26.3001    2.8740 H         1 UNK         0.0949 
    101 H101       24.1725   25.1311    4.9700 H         1 UNK         0.0767 
    102 H102       22.8667   25.0202    3.8030 H         1 UNK         0.0767 
    103 H103       23.9042   23.6288    4.0834 H         1 UNK         0.0767 
    104 H104       26.3254   24.2069    4.0181 H         1 UNK         0.3013 
    105 H105       26.9851   28.6340   -0.0583 H         1 UNK         0.3121 
    106 H106       27.9773   28.6566    2.5411 H         1 UNK         0.0774 
    107 H107       25.6916   29.3608    3.1745 H         1 UNK         0.0815 
    108 H108       25.3674   29.9209    1.5375 H         1 UNK         0.0815 
    109 H109       25.6015   28.2054    1.8522 H         1 UNK         0.0815 
    110 H110       27.7135   31.3618    0.3504 H         1 UNK         0.2987 
    111 H111       27.9173   33.5643    2.1092 H         1 UNK         0.0949 
    112 H112       28.9067   33.2295   -0.7782 H         1 UNK         0.0806 
    113 H113       27.2970   33.7645   -0.2903 H         1 UNK         0.0806 
    114 H114       28.6972   34.7645    0.0525 H         1 UNK         0.0806 
    115 H115       30.3595   31.1888    1.3045 H         1 UNK         0.3010 
    116 H116       32.6585   32.8055    2.0335 H         1 UNK         0.0829 
    117 H117       32.8877   30.8033    0.5815 H         1 UNK         0.0813 
    118 H118       33.8391   30.6149    2.0471 H         1 UNK         0.0813 
    119 H119       32.3125   29.7663    1.8818 H         1 UNK         0.0813 
    120 H120       30.1357   31.3289    3.8504 H         1 UNK         0.3038 
    121 H121       29.5495   31.2552    5.9200 H         1 UNK         0.0769 
    122 H122       31.8423   33.1986    6.5044 H         1 UNK         0.0811 
    123 H123       30.4492   32.9048    7.5325 H         1 UNK         0.0811 
    124 H124       30.2266   33.6412    5.9533 H         1 UNK         0.0811 
    125 H125       32.9924   30.5018    5.5924 H         1 UNK         0.3204 
    126 H126       32.7256   28.3223    7.5571 H         1 UNK         0.0748 
    127 H127       34.8156   29.0690    8.7462 H         1 UNK         0.0771 
    128 H128       34.8592   30.5343    7.7739 H         1 UNK         0.0771 
    129 H129       33.5477   30.2693    8.9210 H         1 UNK         0.0771 
    130 H130       34.6789   26.9370    7.5014 H         1 UNK         0.2980 
    131 H131       36.0022   26.8391    4.8370 H         1 UNK         0.0545 
    132 H132       38.2122   26.0602    4.8546 H         1 UNK         0.3459 
    133 H133       39.1215   26.0476    6.3426 H         1 UNK         0.3459 
    134 H134       35.9519   24.3188    5.0801 H         1 UNK         0.0616 
    135 H135       34.9432   24.4847    6.4930 H         1 UNK         0.0616 
    136 H136       34.9133   23.7188    2.8513 H         1 UNK         0.0634 
    137 H137       35.2892   25.4226    2.7212 H         1 UNK         0.0634 
@<TRIPOS>BOND
     1    1    2 1    
     2    1   72 1    
     3    1   73 1    
     4    1   74 1    
     5    2    3 2    
     6    2    4 am   BACKBONE|DICT|INTERRES
     7    4    5 1    
     8    4   75 1    
     9    5    6 1    
    10    5   35 1    
    11    5   76 1    
    12    6    7 1    
    13    6   77 1    
    14    6   78 1    
    15    7    8 1    
    16    8    9 1    
    17    8   79 1    
    18    8   80 1    
    19    9   10 ar   
    20    9   14 ar   
    21   10   11 ar   
    22   10   81 1    
    23   11   12 ar   
    24   11   71 1    
    25   12   13 ar   
    26   12   82 1    
    27   13   14 ar   
    28   13   15 1    
    29   14   83 1    
    30   15   16 1    
    31   15   84 1    
    32   15   85 1    
    33   16   17 1    
    34   17   18 1    
    35   17   86 1    
    36   17   87 1    
    37   18   19 1    
    38   18   37 1    
    39   18   88 1    
    40   19   20 am   BACKBONE|DICT|INTERRES
    41   19   89 1    
    42   20   21 2    
    43   20   22 1    
    44   22   23 1    
    45   22   24 1    
    46   22   90 1    
    47   23   91 1    
    48   23   92 1    
    49   23   93 1    
    50   24   25 am   BACKBONE|DICT|INTERRES
    51   24   94 1    
    52   25   26 2    
    53   25   27 1    
    54   27   28 1    
    55   27   29 1    
    56   27   95 1    
    57   28   96 1    
    58   28   97 1    
    59   28   98 1    
    60   29   30 am   BACKBONE|DICT|INTERRES
    61   29   99 1    
    62   30   31 2    
    63   30   32 1    
    64   32   33 1    
    65   32   34 1    
    66   32  100 1    
    67   33  101 1    
    68   33  102 1    
    69   33  103 1    
    70   34   35 am   BACKBONE|DICT|INTERRES
    71   34  104 1    
    72   35   36 2    
    73   37   38 2    
    74   37   39 am   BACKBONE|DICT|INTERRES
    75   39   40 1    
    76   39  105 1    
    77   40   41 1    
    78   40   42 1    
    79   40  106 1    
    80   41  107 1    
    81   41  108 1    
    82   41  109 1    
    83   42   43 2    
    84   42   44 am   BACKBONE|DICT|INTERRES
    85   44   45 1    
    86   44  110 1    
    87   45   46 1    
    88   45   47 1    
    89   45  111 1    
    90   46  112 1    
    91   46  113 1    
    92   46  114 1    
    93   47   48 2    
    94   47   49 am   BACKBONE|DICT|INTERRES
    95   49   50 1    
    96   49  115 1    
    97   50   51 1    
    98   50   52 1    
    99   50  116 1    
   100   51  117 1    
   101   51  118 1    
   102   51  119 1    
   103   52   53 2    
   104   52   54 am   BACKBONE|DICT|INTERRES
   105   54   55 1    
   106   54  120 1    
   107   55   56 1    
   108   55   57 1    
   109   55  121 1    
   110   56  122 1    
   111   56  123 1    
   112   56  124 1    
   113   57   58 2    
   114   57   59 am   BACKBONE|DICT|INTERRES
   115   59   60 1    
   116   59  125 1    
   117   60   61 1    
   118   60   62 1    
   119   60  126 1    
   120   61  127 1    
   121   61  128 1    
   122   61  129 1    
   123   62   63 2    
   124   62   64 am   BACKBONE|DICT|INTERRES
   125   64   65 1    
   126   64  130 1    
   127   65   66 1    
   128   65   69 1    
   129   65  131 1    
   130   66   67 am   BACKBONE|DICT|INTERRES
   131   66   68 2    
   132   67  132 1    
   133   67  133 1    
   134   69   70 1    
   135   69  134 1    
   136   69  135 1    
   137   70   71 1    
   138   71  136 1    
   139   71  137 1    
@<TRIPOS>SUBSTRUCTURE
     1 UNK         1 GROUP             0       ****    0 ROOT    
