@<TRIPOS>MOLECULE
3R136
137   139    1
SMALL
USER_CHARGES


@<TRIPOS>ATOM
      1 CA         27.4491   18.0137   -1.3839 C.3       0 UNK        -0.1979 
      2 C          27.9070   19.4341   -1.6810 C.2       0 UNK         0.4864 
      3 O          28.0318   19.8046   -2.8496 O.2       0 UNK        -0.5359 
      4 N          28.1661   20.2274   -0.6337 N.am      1 UNK        -0.4318 
      5 CA         28.5750   21.6333   -0.7212 C.3       1 UNK         0.0824 
      6 C6         29.0984   22.1646    0.6371 C.3       12 UNK        -0.0944 
      7 S7         30.5482   21.2232    1.2242 S.3       12 UNK        -0.2672 
      8 C8         31.8530   22.5027    1.2390 C.3       12 UNK         0.0333 
      9 C9         31.8362   23.4740    2.4242 C.ar      12 UNK        -0.0807 
     10 C10        32.8289   24.4570    2.4794 C.ar      12 UNK        -0.0894 
     11 C11        32.8913   25.3584    3.5458 C.ar      12 UNK        -0.0804 
     12 C12        31.9340   25.2929    4.5619 C.ar      12 UNK        -0.0824 
     13 C13        30.9326   24.3183    4.5252 C.ar      12 UNK        -0.0762 
     14 C14        30.8933   23.4119    3.4599 C.ar      12 UNK        -0.0782 
     15 C15        29.9193   24.2009    5.6564 C.3       12 UNK         0.0230 
     16 S16        28.2131   24.4265    5.0625 S.3       12 UNK        -0.2608 
     17 C17        27.8485   26.1492    5.5436 C.3       12 UNK        -0.0989 
     18 CA         28.6358   27.2412    4.7712 C.3       5 UNK         0.0716 
     19 N          28.7273   26.9520    3.3377 N.am      5 UNK        -0.4135 
     20 C          29.3394   27.7009    2.4116 C.2       4 UNK         0.5031 
     21 O          29.9372   28.7489    2.6538 O.2       4 UNK        -0.5229 
     22 CA         29.1844   27.2554    0.9494 C.3       4 UNK         0.0329 
     23 CB         30.3658   26.3672    0.5355 C.3       4 UNK        -0.2001 
     24 N          27.9235   26.5665    0.6403 N.am      4 UNK        -0.4303 
     25 C          26.6809   27.0056    0.9008 C.2       3 UNK         0.5044 
     26 O          26.4440   28.0193    1.5615 O.2       3 UNK        -0.5152 
     27 CA         25.5041   26.1633    0.3664 C.3       3 UNK         0.0319 
     28 CB         24.3117   27.0459   -0.0588 C.3       3 UNK        -0.2001 
     29 N          25.8664   25.2203   -0.7029 N.am      3 UNK        -0.4354 
     30 C          26.3547   25.4999   -1.9209 C.2       2 UNK         0.4964 
     31 O          26.5768   26.6418   -2.3257 O.2       2 UNK        -0.5047 
     32 CA         26.6904   24.2860   -2.8114 C.3       2 UNK         0.0288 
     33 CB         27.2114   24.6969   -4.2021 C.3       2 UNK        -0.2113 
     34 N          27.6730   23.3928   -2.1854 N.am      2 UNK        -0.4145 
     35 C          27.4026   22.4977   -1.2253 C.2       1 UNK         0.5006 
     36 O          26.2856   22.3639   -0.7166 O.2       1 UNK        -0.5103 
     37 C          28.0214   28.6257    5.0830 C.2       5 UNK         0.5055 
     38 O          28.3588   29.2084    6.1138 O.2       5 UNK        -0.5220 
     39 N          27.1323   29.1124    4.2046 N.am      6 UNK        -0.4450 
     40 CA         26.4983   30.4273    4.2898 C.3       6 UNK         0.0367 
     41 CB         24.9718   30.2489    4.3336 C.3       6 UNK        -0.1929 
     42 C          26.8951   31.3209    3.1052 C.2       6 UNK         0.5070 
     43 O          27.0777   32.5223    3.2996 O.2       6 UNK        -0.5237 
     44 N          27.0067   30.7388    1.9013 N.am      7 UNK        -0.4739 
     45 CA         27.2871   31.4568    0.6544 C.3       7 UNK         0.0276 
     46 CB         26.9760   30.5458   -0.5445 C.3       7 UNK        -0.1927 
     47 C          28.7197   32.0067    0.5611 C.2       7 UNK         0.5013 
     48 O          28.9122   33.0585   -0.0507 O.2       7 UNK        -0.5193 
     49 N          29.6860   31.3023    1.1639 N.am      8 UNK        -0.4253 
     50 CA         31.0769   31.7385    1.2861 C.3       8 UNK         0.0242 
     51 CB         32.0209   30.6728    0.7042 C.3       8 UNK        -0.2000 
     52 C          31.3964   32.0357    2.7550 C.2       8 UNK         0.4948 
     53 O          31.8953   33.1222    3.0506 O.2       8 UNK        -0.5275 
     54 N          31.0886   31.0800    3.6465 N.am      9 UNK        -0.4246 
     55 CA         31.1783   31.1052    5.1155 C.3       9 UNK         0.0261 
     56 CB         30.2314   32.1655    5.7086 C.3       9 UNK        -0.1959 
     57 C          32.5982   31.2481    5.6947 C.2       9 UNK         0.5033 
     58 O          32.9448   30.5231    6.6271 O.2       9 UNK        -0.5390 
     59 N          33.3983   32.1590    5.1318 N.am      10 UNK        -0.4215 
     60 CA         34.7990   32.4136    5.4770 C.3       10 UNK         0.0240 
     61 CB         35.1523   33.8503    5.0542 C.3       10 UNK        -0.1982 
     62 C          35.7791   31.4015    4.8505 C.2       10 UNK         0.4970 
     63 O          36.9820   31.5076    5.0955 O.2       10 UNK        -0.4916 
     64 N          35.2670   30.4646    4.0418 N.am      11 UNK        -0.4279 
     65 CA         36.0143   29.3740    3.4052 C.3       11 UNK         0.1003 
     66 C          36.7050   28.4009    4.4049 C.2       11 UNK         0.5709 
     67 N          37.7225   27.6781    3.9560 N.am      11 UNK        -0.7358 
     68 O          36.3153   28.2686    5.5638 O.2       11 UNK        -0.4999 
     69 C69        35.1383   28.6273    2.3611 C.3       12 UNK        -0.0954 
     70 S70        33.5391   27.9963    2.9882 S.3       12 UNK        -0.2268 
     71 C71        34.0286   26.3636    3.6207 C.3       12 UNK         0.0203 
     72 H72        26.4612   17.8413   -1.8103 H         1 UNK         0.0888 
     73 H73        28.1411   17.2964   -1.8243 H         1 UNK         0.0888 
     74 H74        27.3949   17.8185   -0.3130 H         1 UNK         0.0888 
     75 H75        28.0412   19.8714    0.3029 H         1 UNK         0.3017 
     76 H76        29.3875   21.6963   -1.4487 H         1 UNK         0.0873 
     77 H77        29.3631   23.2204    0.5600 H         1 UNK         0.0745 
     78 H78        28.3214   22.1043    1.4020 H         1 UNK         0.0745 
     79 H79        32.8153   21.9889    1.2365 H         1 UNK         0.0705 
     80 H80        31.8071   23.0677    0.3067 H         1 UNK         0.0705 
     81 H81        33.5715   24.5094    1.6946 H         1 UNK         0.1334 
     82 H82        31.9855   25.9873    5.3894 H         1 UNK         0.1417 
     83 H83        30.1203   22.6572    3.4574 H         1 UNK         0.1562 
     84 H84        30.1347   24.9092    6.4579 H         1 UNK         0.0748 
     85 H85        30.0049   23.2072    6.0984 H         1 UNK         0.0748 
     86 H86        28.0153   26.2537    6.6177 H         1 UNK         0.0940 
     87 H87        26.7739   26.2825    5.3991 H         1 UNK         0.0940 
     88 H88        29.6605   27.2559    5.1470 H         1 UNK         0.0703 
     89 H89        28.2750   26.1006    3.0393 H         1 UNK         0.3081 
     90 H90        29.2147   28.1586    0.3382 H         1 UNK         0.0719 
     91 H91        30.3534   25.4175    1.0683 H         1 UNK         0.0809 
     92 H92        30.3532   26.1563   -0.5338 H         1 UNK         0.0809 
     93 H93        31.3182   26.8515    0.7588 H         1 UNK         0.0809 
     94 H94        28.0014   25.7247    0.0909 H         1 UNK         0.2990 
     95 H95        25.1750   25.5503    1.2066 H         1 UNK         0.0690 
     96 H96        23.4781   26.4419   -0.4171 H         1 UNK         0.0788 
     97 H97        24.5864   27.7436   -0.8506 H         1 UNK         0.0788 
     98 H98        23.9425   27.6384    0.7794 H         1 UNK         0.0788 
     99 H99        25.7573   24.2345   -0.4768 H         1 UNK         0.2993 
    100 H100       25.7593   23.7338   -2.9593 H         1 UNK         0.0949 
    101 H101       27.3817   23.8255   -4.8350 H         1 UNK         0.0767 
    102 H102       26.4900   25.3322   -4.7181 H         1 UNK         0.0767 
    103 H103       28.1477   25.2527   -4.1362 H         1 UNK         0.0767 
    104 H104       28.6180   23.4589   -2.5361 H         1 UNK         0.3013 
    105 H105       26.9227   28.5669    3.3736 H         1 UNK         0.3121 
    106 H106       26.8057   30.9425    5.2023 H         1 UNK         0.0774 
    107 H107       24.5988   29.7349    3.4465 H         1 UNK         0.0815 
    108 H108       24.4669   31.2143    4.3898 H         1 UNK         0.0815 
    109 H109       24.6670   29.6725    5.2071 H         1 UNK         0.0815 
    110 H110       26.8001   29.7460    1.8084 H         1 UNK         0.2987 
    111 H111       26.6104   32.3132    0.6082 H         1 UNK         0.0949 
    112 H112       27.6216   29.6683   -0.5676 H         1 UNK         0.0806 
    113 H113       25.9428   30.1984   -0.5223 H         1 UNK         0.0806 
    114 H114       27.1183   31.0782   -1.4859 H         1 UNK         0.0806 
    115 H115       29.4339   30.4589    1.6669 H         1 UNK         0.3010 
    116 H116       31.2407   32.6629    0.7280 H         1 UNK         0.0829 
    117 H117       31.8919   29.7019    1.1807 H         1 UNK         0.0813 
    118 H118       31.8499   30.5401   -0.3640 H         1 UNK         0.0813 
    119 H119       33.0642   30.9642    0.8316 H         1 UNK         0.0813 
    120 H120       30.7293   30.2005    3.2728 H         1 UNK         0.3038 
    121 H121       30.8172   30.1277    5.4379 H         1 UNK         0.0769 
    122 H122       30.2293   32.1188    6.7983 H         1 UNK         0.0811 
    123 H123       30.5210   33.1779    5.4257 H         1 UNK         0.0811 
    124 H124       29.2055   32.0057    5.3771 H         1 UNK         0.0811 
    125 H125       33.0014   32.6993    4.3619 H         1 UNK         0.3204 
    126 H126       34.9094   32.3388    6.5608 H         1 UNK         0.0748 
    127 H127       36.1755   34.1040    5.3347 H         1 UNK         0.0771 
    128 H128       35.0656   33.9848    3.9751 H         1 UNK         0.0771 
    129 H129       34.4978   34.5771    5.5359 H         1 UNK         0.0771 
    130 H130       34.2660   30.4264    3.9297 H         1 UNK         0.2980 
    131 H131       36.8238   29.8567    2.8541 H         1 UNK         0.0545 
    132 H132       38.0517   27.7693    3.0075 H         1 UNK         0.3459 
    133 H133       38.1784   27.0343    4.5834 H         1 UNK         0.3459 
    134 H134       34.9045   29.3147    1.5471 H         1 UNK         0.0616 
    135 H135       35.6951   27.8162    1.8893 H         1 UNK         0.0616 
    136 H136       34.3599   26.4677    4.6547 H         1 UNK         0.0634 
    137 H137       34.8873   25.9873    3.0632 H         1 UNK         0.0634 
@<TRIPOS>BOND
     1    1    2 1    
     2    1   72 1    
     3    1   73 1    
     4    1   74 1    
     5    2    3 2    
     6    2    4 am   BACKBONE|DICT|INTERRES
     7    4    5 1    
     8    4   75 1    
     9    5    6 1    
    10    5   35 1    
    11    5   76 1    
    12    6    7 1    
    13    6   77 1    
    14    6   78 1    
    15    7    8 1    
    16    8    9 1    
    17    8   79 1    
    18    8   80 1    
    19    9   10 ar   
    20    9   14 ar   
    21   10   11 ar   
    22   10   81 1    
    23   11   12 ar   
    24   11   71 1    
    25   12   13 ar   
    26   12   82 1    
    27   13   14 ar   
    28   13   15 1    
    29   14   83 1    
    30   15   16 1    
    31   15   84 1    
    32   15   85 1    
    33   16   17 1    
    34   17   18 1    
    35   17   86 1    
    36   17   87 1    
    37   18   19 1    
    38   18   37 1    
    39   18   88 1    
    40   19   20 am   BACKBONE|DICT|INTERRES
    41   19   89 1    
    42   20   21 2    
    43   20   22 1    
    44   22   23 1    
    45   22   24 1    
    46   22   90 1    
    47   23   91 1    
    48   23   92 1    
    49   23   93 1    
    50   24   25 am   BACKBONE|DICT|INTERRES
    51   24   94 1    
    52   25   26 2    
    53   25   27 1    
    54   27   28 1    
    55   27   29 1    
    56   27   95 1    
    57   28   96 1    
    58   28   97 1    
    59   28   98 1    
    60   29   30 am   BACKBONE|DICT|INTERRES
    61   29   99 1    
    62   30   31 2    
    63   30   32 1    
    64   32   33 1    
    65   32   34 1    
    66   32  100 1    
    67   33  101 1    
    68   33  102 1    
    69   33  103 1    
    70   34   35 am   BACKBONE|DICT|INTERRES
    71   34  104 1    
    72   35   36 2    
    73   37   38 2    
    74   37   39 am   BACKBONE|DICT|INTERRES
    75   39   40 1    
    76   39  105 1    
    77   40   41 1    
    78   40   42 1    
    79   40  106 1    
    80   41  107 1    
    81   41  108 1    
    82   41  109 1    
    83   42   43 2    
    84   42   44 am   BACKBONE|DICT|INTERRES
    85   44   45 1    
    86   44  110 1    
    87   45   46 1    
    88   45   47 1    
    89   45  111 1    
    90   46  112 1    
    91   46  113 1    
    92   46  114 1    
    93   47   48 2    
    94   47   49 am   BACKBONE|DICT|INTERRES
    95   49   50 1    
    96   49  115 1    
    97   50   51 1    
    98   50   52 1    
    99   50  116 1    
   100   51  117 1    
   101   51  118 1    
   102   51  119 1    
   103   52   53 2    
   104   52   54 am   BACKBONE|DICT|INTERRES
   105   54   55 1    
   106   54  120 1    
   107   55   56 1    
   108   55   57 1    
   109   55  121 1    
   110   56  122 1    
   111   56  123 1    
   112   56  124 1    
   113   57   58 2    
   114   57   59 am   BACKBONE|DICT|INTERRES
   115   59   60 1    
   116   59  125 1    
   117   60   61 1    
   118   60   62 1    
   119   60  126 1    
   120   61  127 1    
   121   61  128 1    
   122   61  129 1    
   123   62   63 2    
   124   62   64 am   BACKBONE|DICT|INTERRES
   125   64   65 1    
   126   64  130 1    
   127   65   66 1    
   128   65   69 1    
   129   65  131 1    
   130   66   67 am   BACKBONE|DICT|INTERRES
   131   66   68 2    
   132   67  132 1    
   133   67  133 1    
   134   69   70 1    
   135   69  134 1    
   136   69  135 1    
   137   70   71 1    
   138   71  136 1    
   139   71  137 1    
@<TRIPOS>SUBSTRUCTURE
     1 UNK         1 GROUP             0       ****    0 ROOT    
