@<TRIPOS>MOLECULE
3R136
137   139    1
SMALL
USER_CHARGES


@<TRIPOS>ATOM
      1 CA         33.6539   26.9933   -2.7562 C.3       0 UNK        -0.1979 
      2 C          32.3359   27.4406   -2.1418 C.2       0 UNK         0.4864 
      3 O          31.7422   28.4086   -2.6141 O.2       0 UNK        -0.5359 
      4 N          31.8720   26.7309   -1.1036 N.am      1 UNK        -0.4318 
      5 CA         30.6509   27.0271   -0.3421 C.3       1 UNK         0.0824 
      6 C6         30.6321   26.2554    1.0029 C.3       12 UNK        -0.0944 
      7 S7         30.6284   24.4356    0.8232 S.3       12 UNK        -0.2672 
      8 C8         31.6549   23.9277    2.2406 C.3       12 UNK         0.0333 
      9 C9         31.0361   24.3467    3.5671 C.ar      12 UNK        -0.0807 
     10 C10        31.6651   25.3004    4.3732 C.ar      12 UNK        -0.0894 
     11 C11        31.0901   25.6978    5.5848 C.ar      12 UNK        -0.0804 
     12 C12        29.8736   25.1373    5.9847 C.ar      12 UNK        -0.0824 
     13 C13        29.2345   24.1846    5.1849 C.ar      12 UNK        -0.0762 
     14 C14        29.8266   23.7846    3.9841 C.ar      12 UNK        -0.0782 
     15 C15        27.8935   23.6001    5.6016 C.3       12 UNK         0.0230 
     16 S16        26.5289   24.2782    4.6028 S.3       12 UNK        -0.2608 
     17 C17        26.5480   26.0376    5.0938 C.3       12 UNK        -0.0989 
     18 CA         27.2387   26.9513    4.0400 C.3       5 UNK         0.0716 
     19 N          26.6440   26.8463    2.6995 N.am      5 UNK        -0.4135 
     20 C          25.3956   27.1860    2.3423 C.2       4 UNK         0.5031 
     21 O          24.5728   27.6974    3.1023 O.2       4 UNK        -0.5229 
     22 CA         25.0001   26.9295    0.8792 C.3       4 UNK         0.0329 
     23 CB         25.1165   28.2260    0.0604 C.3       4 UNK        -0.2001 
     24 N          25.8226   25.8897    0.2555 N.am      4 UNK        -0.4303 
     25 C          25.5926   24.5711    0.3605 C.2       3 UNK         0.5044 
     26 O          24.6333   24.1029    0.9756 O.2       3 UNK        -0.5152 
     27 CA         26.6008   23.6062   -0.3064 C.3       3 UNK         0.0319 
     28 CB         25.9140   22.3690   -0.9230 C.3       3 UNK        -0.2001 
     29 N          27.5002   24.2484   -1.2742 N.am      3 UNK        -0.4354 
     30 C          27.1693   24.8721   -2.4173 C.2       2 UNK         0.4964 
     31 O          26.0330   24.8715   -2.8929 O.2       2 UNK        -0.5047 
     32 CA         28.2906   25.6656   -3.1259 C.3       2 UNK         0.0288 
     33 CB         27.7436   26.9034   -3.8690 C.3       2 UNK        -0.2113 
     34 N          29.4024   26.0609   -2.2452 N.am      2 UNK        -0.4145 
     35 C          29.3361   26.7934   -1.1192 C.2       1 UNK         0.5006 
     36 O          28.2798   27.2081   -0.6378 O.2       1 UNK        -0.5103 
     37 C          27.3774   28.4132    4.5304 C.2       5 UNK         0.5055 
     38 O          27.4268   28.6478    5.7395 O.2       5 UNK        -0.5220 
     39 N          27.4564   29.3715    3.5965 N.am      6 UNK        -0.4450 
     40 CA         27.6115   30.7975    3.8780 C.3       6 UNK         0.0367 
     41 CB         26.2662   31.4306    4.2844 C.3       6 UNK        -0.1929 
     42 C          28.2323   31.5072    2.6726 C.2       6 UNK         0.5070 
     43 O          29.3139   32.0804    2.8026 O.2       6 UNK        -0.5237 
     44 N          27.5484   31.4400    1.5201 N.am      7 UNK        -0.4739 
     45 CA         27.9394   32.0730    0.2551 C.3       7 UNK         0.0276 
     46 CB         26.8467   31.8127   -0.7973 C.3       7 UNK        -0.1927 
     47 C          29.3159   31.5924   -0.2390 C.2       7 UNK         0.5013 
     48 O          29.4175   30.4768   -0.7485 O.2       7 UNK        -0.5193 
     49 N          30.3426   32.4314   -0.0284 N.am      8 UNK        -0.4253 
     50 CA         31.7677   32.1886   -0.2998 C.3       8 UNK         0.0242 
     51 CB         32.0243   32.0933   -1.8192 C.3       8 UNK        -0.2000 
     52 C          32.3599   30.9899    0.4749 C.2       8 UNK         0.4948 
     53 O          33.3618   30.4188    0.0394 O.2       8 UNK        -0.5275 
     54 N          31.7405   30.6243    1.6053 N.am      9 UNK        -0.4246 
     55 CA         32.1323   29.4794    2.4217 C.3       9 UNK         0.0261 
     56 CB         30.9075   28.9924    3.2118 C.3       9 UNK        -0.1959 
     57 C          33.2792   29.8289    3.3789 C.2       9 UNK         0.5033 
     58 O          33.3430   30.9512    3.8869 O.2       9 UNK        -0.5390 
     59 N          34.1220   28.8308    3.6531 N.am      10 UNK        -0.4215 
     60 CA         35.1482   28.8354    4.6877 C.3       10 UNK         0.0240 
     61 CB         36.4849   29.3362    4.1142 C.3       10 UNK        -0.1982 
     62 C          35.2562   27.3956    5.1953 C.2       10 UNK         0.4970 
     63 O          35.2165   26.4703    4.3802 O.2       10 UNK        -0.4916 
     64 N          35.3567   27.2304    6.5150 N.am      11 UNK        -0.4279 
     65 CA         35.3929   25.9375    7.2073 C.3       11 UNK         0.1003 
     66 C          35.9449   26.0925    8.6498 C.2       11 UNK         0.5709 
     67 N          36.2351   24.9903    9.3278 N.am      11 UNK        -0.7358 
     68 O          36.1185   27.1993    9.1601 O.2       11 UNK        -0.4999 
     69 C69        34.0360   25.1726    7.1386 C.3       12 UNK        -0.0954 
     70 S70        32.6193   26.0522    7.8912 S.3       12 UNK        -0.2268 
     71 C71        31.7608   26.7585    6.4468 C.3       12 UNK         0.0203 
     72 H72        33.5160   26.7557   -3.8108 H         1 UNK         0.0888 
     73 H73        34.3904   27.7930   -2.6801 H         1 UNK         0.0888 
     74 H74        34.0586   26.1117   -2.2594 H         1 UNK         0.0888 
     75 H75        32.3945   25.9294   -0.7786 H         1 UNK         0.3017 
     76 H76        30.6713   28.0947   -0.1110 H         1 UNK         0.0873 
     77 H77        31.5034   26.5422    1.5911 H         1 UNK         0.0745 
     78 H78        29.7669   26.5408    1.6036 H         1 UNK         0.0745 
     79 H79        31.7681   22.8429    2.2249 H         1 UNK         0.0705 
     80 H80        32.6576   24.3429    2.1266 H         1 UNK         0.0705 
     81 H81        32.6023   25.7362    4.0562 H         1 UNK         0.1334 
     82 H82        29.4216   25.4528    6.9153 H         1 UNK         0.1417 
     83 H83        29.3312   23.0540    3.3587 H         1 UNK         0.1562 
     84 H84        27.6978   23.7828    6.6595 H         1 UNK         0.0748 
     85 H85        27.9173   22.5164    5.4786 H         1 UNK         0.0748 
     86 H86        27.0391   26.1217    6.0646 H         1 UNK         0.0940 
     87 H87        25.5176   26.3570    5.2583 H         1 UNK         0.0940 
     88 H88        28.2651   26.5996    3.9278 H         1 UNK         0.0703 
     89 H89        27.2298   26.4289    1.9917 H         1 UNK         0.3081 
     90 H90        23.9547   26.6135    0.8671 H         1 UNK         0.0719 
     91 H91        24.4708   29.0051    0.4681 H         1 UNK         0.0809 
     92 H92        26.1354   28.6138    0.0589 H         1 UNK         0.0809 
     93 H93        24.8187   28.0678   -0.9763 H         1 UNK         0.0809 
     94 H94        26.6394   26.2108   -0.2576 H         1 UNK         0.2990 
     95 H95        27.2437   23.2528    0.5014 H         1 UNK         0.0690 
     96 H96        26.6415   21.6958   -1.3763 H         1 UNK         0.0788 
     97 H97        25.1891   22.6462   -1.6888 H         1 UNK         0.0788 
     98 H98        25.3784   21.7990   -0.1628 H         1 UNK         0.0788 
     99 H99        28.4658   24.3116   -0.9808 H         1 UNK         0.2993 
    100 H100       28.7119   24.9886   -3.8705 H         1 UNK         0.0949 
    101 H101       27.2469   27.5953   -3.1873 H         1 UNK         0.0767 
    102 H102       28.5425   27.4476   -4.3731 H         1 UNK         0.0767 
    103 H103       27.0173   26.6183   -4.6312 H         1 UNK         0.0767 
    104 H104       30.3177   25.7385   -2.5261 H         1 UNK         0.3013 
    105 H105       27.4534   29.1022    2.6230 H         1 UNK         0.3121 
    106 H106       28.3098   30.9158    4.7099 H         1 UNK         0.0774 
    107 H107       25.4928   31.2648    3.5338 H         1 UNK         0.0815 
    108 H108       25.9050   31.0187    5.2268 H         1 UNK         0.0815 
    109 H109       26.3664   32.5081    4.4222 H         1 UNK         0.0815 
    110 H110       26.6619   30.9584    1.5153 H         1 UNK         0.2987 
    111 H111       27.9867   33.1509    0.4249 H         1 UNK         0.0949 
    112 H112       25.8827   32.2104   -0.4798 H         1 UNK         0.0806 
    113 H113       27.0980   32.2930   -1.7439 H         1 UNK         0.0806 
    114 H114       26.7224   30.7482   -0.9991 H         1 UNK         0.0806 
    115 H115       30.1423   33.2982    0.4525 H         1 UNK         0.3010 
    116 H116       32.2987   33.0679    0.0679 H         1 UNK         0.0829 
    117 H117       31.5773   31.1949   -2.2467 H         1 UNK         0.0813 
    118 H118       31.6171   32.9555   -2.3470 H         1 UNK         0.0813 
    119 H119       33.0925   32.0569   -2.0363 H         1 UNK         0.0813 
    120 H120       30.9639   31.1835    1.9435 H         1 UNK         0.3038 
    121 H121       32.4602   28.6782    1.7566 H         1 UNK         0.0769 
    122 H122       30.0688   28.7849    2.5487 H         1 UNK         0.0811 
    123 H123       30.5816   29.7319    3.9444 H         1 UNK         0.0811 
    124 H124       31.1276   28.0743    3.7548 H         1 UNK         0.0811 
    125 H125       33.9989   27.9283    3.2109 H         1 UNK         0.3204 
    126 H126       34.8372   29.4833    5.5106 H         1 UNK         0.0748 
    127 H127       36.8308   28.7091    3.2912 H         1 UNK         0.0771 
    128 H128       36.3973   30.3572    3.7422 H         1 UNK         0.0771 
    129 H129       37.2630   29.3340    4.8785 H         1 UNK         0.0771 
    130 H130       35.4203   28.0296    7.1322 H         1 UNK         0.2980 
    131 H131       36.1377   25.3339    6.6850 H         1 UNK         0.0545 
    132 H132       36.1001   24.0771    8.9231 H         1 UNK         0.3459 
    133 H133       36.5948   25.0741   10.2658 H         1 UNK         0.3459 
    134 H134       34.1244   24.2057    7.6357 H         1 UNK         0.0616 
    135 H135       33.8022   24.9291    6.1033 H         1 UNK         0.0616 
    136 H136       32.4595   27.3516    5.8581 H         1 UNK         0.0634 
    137 H137       31.0037   27.4586    6.8030 H         1 UNK         0.0634 
@<TRIPOS>BOND
     1    1    2 1    
     2    1   72 1    
     3    1   73 1    
     4    1   74 1    
     5    2    3 2    
     6    2    4 am   BACKBONE|DICT|INTERRES
     7    4    5 1    
     8    4   75 1    
     9    5    6 1    
    10    5   35 1    
    11    5   76 1    
    12    6    7 1    
    13    6   77 1    
    14    6   78 1    
    15    7    8 1    
    16    8    9 1    
    17    8   79 1    
    18    8   80 1    
    19    9   10 ar   
    20    9   14 ar   
    21   10   11 ar   
    22   10   81 1    
    23   11   12 ar   
    24   11   71 1    
    25   12   13 ar   
    26   12   82 1    
    27   13   14 ar   
    28   13   15 1    
    29   14   83 1    
    30   15   16 1    
    31   15   84 1    
    32   15   85 1    
    33   16   17 1    
    34   17   18 1    
    35   17   86 1    
    36   17   87 1    
    37   18   19 1    
    38   18   37 1    
    39   18   88 1    
    40   19   20 am   BACKBONE|DICT|INTERRES
    41   19   89 1    
    42   20   21 2    
    43   20   22 1    
    44   22   23 1    
    45   22   24 1    
    46   22   90 1    
    47   23   91 1    
    48   23   92 1    
    49   23   93 1    
    50   24   25 am   BACKBONE|DICT|INTERRES
    51   24   94 1    
    52   25   26 2    
    53   25   27 1    
    54   27   28 1    
    55   27   29 1    
    56   27   95 1    
    57   28   96 1    
    58   28   97 1    
    59   28   98 1    
    60   29   30 am   BACKBONE|DICT|INTERRES
    61   29   99 1    
    62   30   31 2    
    63   30   32 1    
    64   32   33 1    
    65   32   34 1    
    66   32  100 1    
    67   33  101 1    
    68   33  102 1    
    69   33  103 1    
    70   34   35 am   BACKBONE|DICT|INTERRES
    71   34  104 1    
    72   35   36 2    
    73   37   38 2    
    74   37   39 am   BACKBONE|DICT|INTERRES
    75   39   40 1    
    76   39  105 1    
    77   40   41 1    
    78   40   42 1    
    79   40  106 1    
    80   41  107 1    
    81   41  108 1    
    82   41  109 1    
    83   42   43 2    
    84   42   44 am   BACKBONE|DICT|INTERRES
    85   44   45 1    
    86   44  110 1    
    87   45   46 1    
    88   45   47 1    
    89   45  111 1    
    90   46  112 1    
    91   46  113 1    
    92   46  114 1    
    93   47   48 2    
    94   47   49 am   BACKBONE|DICT|INTERRES
    95   49   50 1    
    96   49  115 1    
    97   50   51 1    
    98   50   52 1    
    99   50  116 1    
   100   51  117 1    
   101   51  118 1    
   102   51  119 1    
   103   52   53 2    
   104   52   54 am   BACKBONE|DICT|INTERRES
   105   54   55 1    
   106   54  120 1    
   107   55   56 1    
   108   55   57 1    
   109   55  121 1    
   110   56  122 1    
   111   56  123 1    
   112   56  124 1    
   113   57   58 2    
   114   57   59 am   BACKBONE|DICT|INTERRES
   115   59   60 1    
   116   59  125 1    
   117   60   61 1    
   118   60   62 1    
   119   60  126 1    
   120   61  127 1    
   121   61  128 1    
   122   61  129 1    
   123   62   63 2    
   124   62   64 am   BACKBONE|DICT|INTERRES
   125   64   65 1    
   126   64  130 1    
   127   65   66 1    
   128   65   69 1    
   129   65  131 1    
   130   66   67 am   BACKBONE|DICT|INTERRES
   131   66   68 2    
   132   67  132 1    
   133   67  133 1    
   134   69   70 1    
   135   69  134 1    
   136   69  135 1    
   137   70   71 1    
   138   71  136 1    
   139   71  137 1    
@<TRIPOS>SUBSTRUCTURE
     1 UNK         1 GROUP             0       ****    0 ROOT    
