@<TRIPOS>MOLECULE
3R136
137   139    1
SMALL
USER_CHARGES


@<TRIPOS>ATOM
      1 CA         32.9693   26.0033    0.3998 C.3       0 UNK        -0.1979 
      2 C          32.0422   24.9313   -0.1566 C.2       0 UNK         0.4864 
      3 O          32.1774   24.5479   -1.3194 O.2       0 UNK        -0.5359 
      4 N          31.1116   24.4480    0.6762 N.am      1 UNK        -0.4318 
      5 CA         30.0781   23.4581    0.3575 C.3       1 UNK         0.0824 
      6 C6         30.6636   22.0591   -0.0037 C.3       12 UNK        -0.0944 
      7 S7         29.6220   20.6960    0.6261 S.3       12 UNK        -0.2672 
      8 C8         30.4640   20.2564    2.1869 C.3       12 UNK         0.0333 
      9 C9         30.6465   21.4634    3.0981 C.ar      12 UNK        -0.0807 
     10 C10        31.9242   21.9861    3.3267 C.ar      12 UNK        -0.0894 
     11 C11        32.1008   23.1400    4.0967 C.ar      12 UNK        -0.0804 
     12 C12        30.9727   23.7626    4.6454 C.ar      12 UNK        -0.0824 
     13 C13        29.6896   23.2632    4.4090 C.ar      12 UNK        -0.0762 
     14 C14        29.5330   22.0945    3.6606 C.ar      12 UNK        -0.0782 
     15 C15        28.4731   24.0274    4.9108 C.3       12 UNK         0.0230 
     16 S16        27.8856   25.2244    3.6646 S.3       12 UNK        -0.2608 
     17 C17        29.3209   26.3535    3.5442 C.3       12 UNK        -0.0989 
     18 CA         29.0278   27.7362    2.9155 C.3       5 UNK         0.0716 
     19 N          28.2767   27.6368    1.6656 N.am      5 UNK        -0.4135 
     20 C          28.0005   28.6559    0.8411 C.2       4 UNK         0.5031 
     21 O          28.3937   29.8080    1.0299 O.2       4 UNK        -0.5229 
     22 CA         27.1600   28.3496   -0.4092 C.3       4 UNK         0.0329 
     23 CB         28.0221   28.4795   -1.6758 C.3       4 UNK        -0.2001 
     24 N          26.5767   27.0062   -0.3669 N.am      4 UNK        -0.4303 
     25 C          25.3578   26.7108    0.1089 C.2       3 UNK         0.5044 
     26 O          24.5736   27.5639    0.5268 O.2       3 UNK        -0.5152 
     27 CA         24.9431   25.2219    0.1665 C.3       3 UNK         0.0319 
     28 CB         23.4782   25.0068   -0.2703 C.3       3 UNK        -0.2001 
     29 N          25.8475   24.3050   -0.5428 N.am      3 UNK        -0.4354 
     30 C          26.1126   24.2639   -1.8588 C.2       2 UNK         0.4964 
     31 O          25.5319   24.9562   -2.6960 O.2       2 UNK        -0.5047 
     32 CA         27.2484   23.3160   -2.3047 C.3       2 UNK         0.0288 
     33 CB         27.9109   23.7783   -3.6203 C.3       2 UNK        -0.2113 
     34 N          28.2823   23.0792   -1.2825 N.am      2 UNK        -0.4145 
     35 C          29.0287   23.9947   -0.6428 C.2       1 UNK         0.5006 
     36 O          28.8651   25.2118   -0.7653 O.2       1 UNK        -0.5103 
     37 C          28.3716   28.7061    3.9177 C.2       5 UNK         0.5055 
     38 O          27.1443   28.7522    4.0263 O.2       5 UNK        -0.5220 
     39 N          29.2189   29.4956    4.5896 N.am      6 UNK        -0.4450 
     40 CA         28.9274   30.6043    5.5083 C.3       6 UNK         0.0367 
     41 CB         28.0367   30.1669    6.6871 C.3       6 UNK        -0.1929 
     42 C          28.3709   31.8596    4.8106 C.2       6 UNK         0.5070 
     43 O          28.7054   32.9671    5.2306 O.2       6 UNK        -0.5237 
     44 N          27.5622   31.6824    3.7577 N.am      7 UNK        -0.4739 
     45 CA         27.0342   32.7537    2.9130 C.3       7 UNK         0.0276 
     46 CB         25.8782   32.2158    2.0527 C.3       7 UNK        -0.1927 
     47 C          28.1305   33.3898    2.0434 C.2       7 UNK         0.5013 
     48 O          28.2982   34.6096    2.0811 O.2       7 UNK        -0.5193 
     49 N          28.8609   32.5560    1.2898 N.am      8 UNK        -0.4253 
     50 CA         29.9980   32.9734    0.4688 C.3       8 UNK         0.0242 
     51 CB         30.1835   31.9975   -0.7058 C.3       8 UNK        -0.2000 
     52 C          31.2800   33.0754    1.3067 C.2       8 UNK         0.4948 
     53 O          31.9672   34.0953    1.2386 O.2       8 UNK        -0.5275 
     54 N          31.5717   32.0266    2.0861 N.am      9 UNK        -0.4246 
     55 CA         32.7292   31.9194    2.9699 C.3       9 UNK         0.0261 
     56 CB         34.0122   31.6738    2.1520 C.3       9 UNK        -0.1959 
     57 C          32.4971   30.7610    3.9416 C.2       9 UNK         0.5033 
     58 O          31.8069   29.7978    3.5928 O.2       9 UNK        -0.5390 
     59 N          33.1020   30.8407    5.1309 N.am      10 UNK        -0.4215 
     60 CA         33.1014   29.7761    6.1372 C.3       10 UNK         0.0240 
     61 CB         33.2677   30.4045    7.5335 C.3       10 UNK        -0.1982 
     62 C          34.1930   28.7384    5.8123 C.2       10 UNK         0.4970 
     63 O          35.1879   28.6437    6.5337 O.2       10 UNK        -0.4916 
     64 N          33.9913   28.0139    4.7044 N.am      11 UNK        -0.4279 
     65 CA         34.9325   27.0547    4.0997 C.3       11 UNK         0.1003 
     66 C          36.2139   27.7417    3.5327 C.2       11 UNK         0.5709 
     67 N          37.2648   26.9896    3.2318 N.am      11 UNK        -0.7358 
     68 O          36.2514   28.9504    3.3073 O.2       11 UNK        -0.4999 
     69 C69        35.2278   25.8164    5.0034 C.3       12 UNK        -0.0954 
     70 S70        33.7139   24.9655    5.5574 S.3       12 UNK        -0.2268 
     71 C71        33.5107   23.7181    4.2384 C.3       12 UNK         0.0203 
     72 H72        32.9636   26.8776   -0.2506 H         1 UNK         0.0888 
     73 H73        32.6686   26.3249    1.3967 H         1 UNK         0.0888 
     74 H74        33.9898   25.6255    0.4556 H         1 UNK         0.0888 
     75 H75        31.0704   24.8056    1.6179 H         1 UNK         0.3017 
     76 H76        29.5217   23.3671    1.2889 H         1 UNK         0.0873 
     77 H77        30.8043   21.9481   -1.0806 H         1 UNK         0.0745 
     78 H78        31.6616   21.9417    0.4210 H         1 UNK         0.0745 
     79 H79        31.4256   19.7964    1.9536 H         1 UNK         0.0705 
     80 H80        29.8781   19.4967    2.7059 H         1 UNK         0.0705 
     81 H81        32.7847   21.5113    2.8747 H         1 UNK         0.1334 
     82 H82        31.0754   24.6680    5.2244 H         1 UNK         0.1417 
     83 H83        28.5415   21.7096    3.4629 H         1 UNK         0.1562 
     84 H84        28.7040   24.5494    5.8408 H         1 UNK         0.0748 
     85 H85        27.6653   23.3319    5.1438 H         1 UNK         0.0748 
     86 H86        30.0795   25.8532    2.9443 H         1 UNK         0.0940 
     87 H87        29.7662   26.4784    4.5331 H         1 UNK         0.0940 
     88 H88        29.9914   28.1672    2.6371 H         1 UNK         0.0703 
     89 H89        27.8902   26.7300    1.4541 H         1 UNK         0.3081 
     90 H90        26.3660   29.0973   -0.4609 H         1 UNK         0.0719 
     91 H91        28.8626   27.7844   -1.6666 H         1 UNK         0.0809 
     92 H92        27.4368   28.2854   -2.5748 H         1 UNK         0.0809 
     93 H93        28.4327   29.4859   -1.7672 H         1 UNK         0.0809 
     94 H94        27.1840   26.2517   -0.6744 H         1 UNK         0.2990 
     95 H95        25.0114   24.9430    1.2192 H         1 UNK         0.0690 
     96 H96        23.1947   23.9563   -0.2064 H         1 UNK         0.0788 
     97 H97        23.3057   25.3401   -1.2939 H         1 UNK         0.0788 
     98 H98        22.7929   25.5641    0.3695 H         1 UNK         0.0788 
     99 H99        26.3811   23.6858    0.0510 H         1 UNK         0.2993 
    100 H100       26.7743   22.3515   -2.4930 H         1 UNK         0.0949 
    101 H101       28.3597   24.7673   -3.5182 H         1 UNK         0.0767 
    102 H102       28.6928   23.0870   -3.9348 H         1 UNK         0.0767 
    103 H103       27.1840   23.8316   -4.4318 H         1 UNK         0.0767 
    104 H104       28.4645   22.1072   -1.0633 H         1 UNK         0.3013 
    105 H105       30.2021   29.4323    4.3249 H         1 UNK         0.3121 
    106 H106       29.8944   30.8908    5.9254 H         1 UNK         0.0774 
    107 H107       27.9507   30.9675    7.4228 H         1 UNK         0.0815 
    108 H108       27.0251   29.9164    6.3670 H         1 UNK         0.0815 
    109 H109       28.4530   29.2992    7.1987 H         1 UNK         0.0815 
    110 H110       27.3188   30.7297    3.5082 H         1 UNK         0.2987 
    111 H111       26.6343   33.5337    3.5650 H         1 UNK         0.0949 
    112 H112       25.4683   33.0013    1.4163 H         1 UNK         0.0806 
    113 H113       26.1961   31.4013    1.4012 H         1 UNK         0.0806 
    114 H114       25.0630   31.8452    2.6743 H         1 UNK         0.0806 
    115 H115       28.6426   31.5595    1.2967 H         1 UNK         0.3010 
    116 H116       29.7899   33.9607    0.0501 H         1 UNK         0.0829 
    117 H117       29.2874   31.9506   -1.3246 H         1 UNK         0.0813 
    118 H118       31.0057   32.3146   -1.3485 H         1 UNK         0.0813 
    119 H119       30.4074   30.9854   -0.3667 H         1 UNK         0.0813 
    120 H120       30.9561   31.2230    2.1020 H         1 UNK         0.3038 
    121 H121       32.8241   32.8455    3.5408 H         1 UNK         0.0769 
    122 H122       33.9347   30.7692    1.5472 H         1 UNK         0.0811 
    123 H123       34.8787   31.5537    2.8039 H         1 UNK         0.0811 
    124 H124       34.2286   32.5060    1.4824 H         1 UNK         0.0811 
    125 H125       33.6878   31.6406    5.3264 H         1 UNK         0.3204 
    126 H126       32.1396   29.2583    6.1231 H         1 UNK         0.0748 
    127 H127       33.2640   29.6372    8.3089 H         1 UNK         0.0771 
    128 H128       34.2050   30.9552    7.6234 H         1 UNK         0.0771 
    129 H129       32.4520   31.0925    7.7569 H         1 UNK         0.0771 
    130 H130       33.1726   28.2342    4.1510 H         1 UNK         0.2980 
    131 H131       34.4157   26.6872    3.2134 H         1 UNK         0.0545 
    132 H132       37.2594   25.9942    3.3860 H         1 UNK         0.3459 
    133 H133       38.0845   27.4320    2.8465 H         1 UNK         0.3459 
    134 H134       35.7927   26.1138    5.8879 H         1 UNK         0.0616 
    135 H135       35.8498   25.0877    4.4820 H         1 UNK         0.0616 
    136 H136       34.2228   22.9113    4.4185 H         1 UNK         0.0634 
    137 H137       33.7822   24.1683    3.2826 H         1 UNK         0.0634 
@<TRIPOS>BOND
     1    1    2 1    
     2    1   72 1    
     3    1   73 1    
     4    1   74 1    
     5    2    3 2    
     6    2    4 am   BACKBONE|DICT|INTERRES
     7    4    5 1    
     8    4   75 1    
     9    5    6 1    
    10    5   35 1    
    11    5   76 1    
    12    6    7 1    
    13    6   77 1    
    14    6   78 1    
    15    7    8 1    
    16    8    9 1    
    17    8   79 1    
    18    8   80 1    
    19    9   10 ar   
    20    9   14 ar   
    21   10   11 ar   
    22   10   81 1    
    23   11   12 ar   
    24   11   71 1    
    25   12   13 ar   
    26   12   82 1    
    27   13   14 ar   
    28   13   15 1    
    29   14   83 1    
    30   15   16 1    
    31   15   84 1    
    32   15   85 1    
    33   16   17 1    
    34   17   18 1    
    35   17   86 1    
    36   17   87 1    
    37   18   19 1    
    38   18   37 1    
    39   18   88 1    
    40   19   20 am   BACKBONE|DICT|INTERRES
    41   19   89 1    
    42   20   21 2    
    43   20   22 1    
    44   22   23 1    
    45   22   24 1    
    46   22   90 1    
    47   23   91 1    
    48   23   92 1    
    49   23   93 1    
    50   24   25 am   BACKBONE|DICT|INTERRES
    51   24   94 1    
    52   25   26 2    
    53   25   27 1    
    54   27   28 1    
    55   27   29 1    
    56   27   95 1    
    57   28   96 1    
    58   28   97 1    
    59   28   98 1    
    60   29   30 am   BACKBONE|DICT|INTERRES
    61   29   99 1    
    62   30   31 2    
    63   30   32 1    
    64   32   33 1    
    65   32   34 1    
    66   32  100 1    
    67   33  101 1    
    68   33  102 1    
    69   33  103 1    
    70   34   35 am   BACKBONE|DICT|INTERRES
    71   34  104 1    
    72   35   36 2    
    73   37   38 2    
    74   37   39 am   BACKBONE|DICT|INTERRES
    75   39   40 1    
    76   39  105 1    
    77   40   41 1    
    78   40   42 1    
    79   40  106 1    
    80   41  107 1    
    81   41  108 1    
    82   41  109 1    
    83   42   43 2    
    84   42   44 am   BACKBONE|DICT|INTERRES
    85   44   45 1    
    86   44  110 1    
    87   45   46 1    
    88   45   47 1    
    89   45  111 1    
    90   46  112 1    
    91   46  113 1    
    92   46  114 1    
    93   47   48 2    
    94   47   49 am   BACKBONE|DICT|INTERRES
    95   49   50 1    
    96   49  115 1    
    97   50   51 1    
    98   50   52 1    
    99   50  116 1    
   100   51  117 1    
   101   51  118 1    
   102   51  119 1    
   103   52   53 2    
   104   52   54 am   BACKBONE|DICT|INTERRES
   105   54   55 1    
   106   54  120 1    
   107   55   56 1    
   108   55   57 1    
   109   55  121 1    
   110   56  122 1    
   111   56  123 1    
   112   56  124 1    
   113   57   58 2    
   114   57   59 am   BACKBONE|DICT|INTERRES
   115   59   60 1    
   116   59  125 1    
   117   60   61 1    
   118   60   62 1    
   119   60  126 1    
   120   61  127 1    
   121   61  128 1    
   122   61  129 1    
   123   62   63 2    
   124   62   64 am   BACKBONE|DICT|INTERRES
   125   64   65 1    
   126   64  130 1    
   127   65   66 1    
   128   65   69 1    
   129   65  131 1    
   130   66   67 am   BACKBONE|DICT|INTERRES
   131   66   68 2    
   132   67  132 1    
   133   67  133 1    
   134   69   70 1    
   135   69  134 1    
   136   69  135 1    
   137   70   71 1    
   138   71  136 1    
   139   71  137 1    
@<TRIPOS>SUBSTRUCTURE
     1 UNK         1 GROUP             0       ****    0 ROOT    
