@<TRIPOS>MOLECULE
3R136
137   139    1
SMALL
USER_CHARGES


@<TRIPOS>ATOM
      1 CA         26.3716   21.9247   -0.0951 C.3       0 UNK        -0.1979 
      2 C          27.5874   22.8351   -0.1781 C.2       0 UNK         0.4864 
      3 O          27.4557   24.0431    0.0123 O.2       0 UNK        -0.5359 
      4 N          28.7683   22.2641   -0.4545 N.am      1 UNK        -0.4318 
      5 CA         30.0482   22.9698   -0.5940 C.3       1 UNK         0.0824 
      6 C6         30.4768   23.6863    0.7195 C.3       12 UNK        -0.0944 
      7 S7         32.2900   23.7463    0.9386 S.3       12 UNK        -0.2672 
      8 C8         32.5727   22.5385    2.2753 C.3       12 UNK         0.0333 
      9 C9         31.8963   22.9577    3.5730 C.ar      12 UNK        -0.0807 
     10 C10        32.4423   23.9742    4.3618 C.ar      12 UNK        -0.0894 
     11 C11        31.7927   24.3923    5.5279 C.ar      12 UNK        -0.0804 
     12 C12        30.5916   23.7835    5.9059 C.ar      12 UNK        -0.0824 
     13 C13        30.0374   22.7673    5.1212 C.ar      12 UNK        -0.0762 
     14 C14        30.7050   22.3450    3.9702 C.ar      12 UNK        -0.0782 
     15 C15        28.7021   22.1383    5.4849 C.3       12 UNK         0.0230 
     16 S16        27.3384   22.9164    4.5586 S.3       12 UNK        -0.2608 
     17 C17        27.1500   24.4926    5.4567 C.3       12 UNK        -0.0989 
     18 CA         27.6737   25.7237    4.6674 C.3       5 UNK         0.0716 
     19 N          26.8977   25.9454    3.4418 N.am      5 UNK        -0.4135 
     20 C          27.2934   26.6607    2.3820 C.2       4 UNK         0.5031 
     21 O          28.4016   27.1924    2.2798 O.2       4 UNK        -0.5229 
     22 CA         26.2523   26.8726    1.2792 C.3       4 UNK         0.0329 
     23 CB         25.2540   27.9768    1.6799 C.3       4 UNK        -0.2001 
     24 N          26.9435   27.2417    0.0469 N.am      4 UNK        -0.4303 
     25 C          26.4400   27.1158   -1.1870 C.2       3 UNK         0.5044 
     26 O          25.2997   26.7172   -1.4288 O.2       3 UNK        -0.5152 
     27 CA         27.3605   27.4929   -2.3528 C.3       3 UNK         0.0319 
     28 CB         27.4757   29.0243   -2.4899 C.3       3 UNK        -0.2001 
     29 N          28.6736   26.8601   -2.2096 N.am      3 UNK        -0.4354 
     30 C          29.5809   26.7470   -3.1900 C.2       2 UNK         0.4964 
     31 O          29.4251   27.2067   -4.3223 O.2       2 UNK        -0.5047 
     32 CA         30.8826   25.9821   -2.8794 C.3       2 UNK         0.0288 
     33 CB         32.0254   26.9617   -2.5653 C.3       2 UNK        -0.2113 
     34 N          30.7627   25.0106   -1.7884 N.am      2 UNK        -0.4145 
     35 C          30.0577   23.8720   -1.8516 C.2       1 UNK         0.5006 
     36 O          29.4481   23.5106   -2.8622 O.2       1 UNK        -0.5103 
     37 C          27.6666   26.9957    5.5476 C.2       5 UNK         0.5055 
     38 O          27.0951   26.9833    6.6406 O.2       5 UNK        -0.5220 
     39 N          28.2661   28.0824    5.0543 N.am      6 UNK        -0.4450 
     40 CA         28.3606   29.3713    5.7304 C.3       6 UNK         0.0367 
     41 CB         27.0725   30.1813    5.4932 C.3       6 UNK        -0.1929 
     42 C          29.5790   30.1245    5.1956 C.2       6 UNK         0.5070 
     43 O          29.9722   29.9089    4.0475 O.2       6 UNK        -0.5237 
     44 N          30.1297   31.0234    6.0208 N.am      7 UNK        -0.4739 
     45 CA         31.2311   31.9182    5.6561 C.3       7 UNK         0.0276 
     46 CB         31.6581   32.7262    6.8915 C.3       7 UNK        -0.1927 
     47 C          30.8470   32.8575    4.5001 C.2       7 UNK         0.5013 
     48 O          29.6880   33.2691    4.4070 O.2       7 UNK        -0.5193 
     49 N          31.8199   33.1498    3.6285 N.am      8 UNK        -0.4253 
     50 CA         31.7239   33.9174    2.3769 C.3       8 UNK         0.0242 
     51 CB         31.1567   35.3347    2.5959 C.3       8 UNK        -0.2000 
     52 C          30.9863   33.1793    1.2431 C.2       8 UNK         0.4948 
     53 O          31.3819   33.3357    0.0872 O.2       8 UNK        -0.5275 
     54 N          29.9714   32.3662    1.5719 N.am      9 UNK        -0.4246 
     55 CA         29.3587   31.3960    0.6600 C.3       9 UNK         0.0261 
     56 CB         28.0358   30.8768    1.2500 C.3       9 UNK        -0.1959 
     57 C          30.3330   30.2435    0.3614 C.2       9 UNK         0.5033 
     58 O          30.5382   29.9057   -0.8044 O.2       9 UNK        -0.5390 
     59 N          30.9528   29.7078    1.4173 N.am      10 UNK        -0.4215 
     60 CA         32.0537   28.7554    1.3745 C.3       10 UNK         0.0240 
     61 CB         31.5080   27.3211    1.2187 C.3       10 UNK        -0.1982 
     62 C          32.9140   28.9633    2.6332 C.2       10 UNK         0.4970 
     63 O          33.0548   30.0998    3.0931 O.2       10 UNK        -0.4916 
     64 N          33.4752   27.8670    3.1590 N.am      11 UNK        -0.4279 
     65 CA         34.2280   27.7851    4.4240 C.3       11 UNK         0.1003 
     66 C          35.5865   28.5509    4.4421 C.2       11 UNK         0.5709 
     67 N          36.1388   28.9448    3.3008 N.am      11 UNK        -0.7358 
     68 O          36.1720   28.7605    5.5021 O.2       11 UNK        -0.4999 
     69 C69        33.3523   28.0851    5.6787 C.3       12 UNK        -0.0954 
     70 S70        31.7983   27.1286    5.7310 S.3       12 UNK        -0.2268 
     71 C71        32.3745   25.5231    6.3596 C.3       12 UNK         0.0203 
     72 H72        25.6159   22.2437   -0.8123 H         1 UNK         0.0888 
     73 H73        26.6238   20.8858   -0.3060 H         1 UNK         0.0888 
     74 H74        25.9373   21.9735    0.9032 H         1 UNK         0.0888 
     75 H75        28.8028   21.2712   -0.6383 H         1 UNK         0.3017 
     76 H76        30.7743   22.1816   -0.7994 H         1 UNK         0.0873 
     77 H77        30.0638   24.6944    0.7905 H         1 UNK         0.0745 
     78 H78        30.0402   23.1633    1.5668 H         1 UNK         0.0745 
     79 H79        33.6464   22.4397    2.4413 H         1 UNK         0.0705 
     80 H80        32.2215   21.5572    1.9525 H         1 UNK         0.0705 
     81 H81        33.3605   24.4551    4.0542 H         1 UNK         0.1334 
     82 H82        30.0792   24.1176    6.7975 H         1 UNK         0.1417 
     83 H83        30.2718   21.5635    3.3605 H         1 UNK         0.1562 
     84 H84        28.5173   22.2052    6.5582 H         1 UNK         0.0748 
     85 H85        28.7232   21.0732    5.2491 H         1 UNK         0.0748 
     86 H86        27.6582   24.4101    6.4189 H         1 UNK         0.0940 
     87 H87        26.0924   24.6168    5.6977 H         1 UNK         0.0940 
     88 H88        28.7129   25.5326    4.3891 H         1 UNK         0.0703 
     89 H89        25.9664   25.5571    3.4407 H         1 UNK         0.3081 
     90 H90        25.7211   25.9314    1.1212 H         1 UNK         0.0719 
     91 H91        25.7573   28.9272    1.8606 H         1 UNK         0.0809 
     92 H92        24.5035   28.1380    0.9061 H         1 UNK         0.0809 
     93 H93        24.7203   27.7132    2.5936 H         1 UNK         0.0809 
     94 H94        27.8926   27.5619    0.1922 H         1 UNK         0.2990 
     95 H95        26.8988   27.1022   -3.2624 H         1 UNK         0.0690 
     96 H96        27.9878   29.3084   -3.4089 H         1 UNK         0.0788 
     97 H97        28.0247   29.4623   -1.6580 H         1 UNK         0.0788 
     98 H98        26.4902   29.4913   -2.5152 H         1 UNK         0.0788 
     99 H99        28.8466   26.3843   -1.3352 H         1 UNK         0.2993 
    100 H100       31.1520   25.4306   -3.7831 H         1 UNK         0.0949 
    101 H101       31.8063   27.5746   -1.6913 H         1 UNK         0.0767 
    102 H102       32.9642   26.4376   -2.3851 H         1 UNK         0.0767 
    103 H103       32.1911   27.6436   -3.4005 H         1 UNK         0.0767 
    104 H104       31.2752   25.2050   -0.9390 H         1 UNK         0.3013 
    105 H105       28.7210   28.0353    4.1445 H         1 UNK         0.3121 
    106 H106       28.5015   29.2071    6.8010 H         1 UNK         0.0774 
    107 H107       27.1329   31.1626    5.9655 H         1 UNK         0.0815 
    108 H108       26.8911   30.3420    4.4297 H         1 UNK         0.0815 
    109 H109       26.2011   29.6752    5.9087 H         1 UNK         0.0815 
    110 H110       29.7178   31.1647    6.9316 H         1 UNK         0.2987 
    111 H111       32.0690   31.2958    5.3359 H         1 UNK         0.0949 
    112 H112       30.8467   33.3541    7.2624 H         1 UNK         0.0806 
    113 H113       31.9772   32.0726    7.7035 H         1 UNK         0.0806 
    114 H114       32.4971   33.3832    6.6581 H         1 UNK         0.0806 
    115 H115       32.7156   32.7017    3.7739 H         1 UNK         0.3010 
    116 H116       32.7552   34.0349    2.0397 H         1 UNK         0.0829 
    117 H117       31.6990   35.8635    3.3797 H         1 UNK         0.0813 
    118 H118       31.2425   35.9283    1.6849 H         1 UNK         0.0813 
    119 H119       30.1012   35.3191    2.8678 H         1 UNK         0.0813 
    120 H120       29.6923   32.3323    2.5462 H         1 UNK         0.3038 
    121 H121       29.1351   31.9035   -0.2808 H         1 UNK         0.0769 
    122 H122       27.5357   30.2058    0.5520 H         1 UNK         0.0811 
    123 H123       27.3470   31.6945    1.4614 H         1 UNK         0.0811 
    124 H124       28.1885   30.3202    2.1745 H         1 UNK         0.0811 
    125 H125       30.6936   30.0079    2.3580 H         1 UNK         0.3204 
    126 H126       32.6840   28.9902    0.5146 H         1 UNK         0.0748 
    127 H127       31.0464   26.9596    2.1392 H         1 UNK         0.0771 
    128 H128       30.7532   27.2619    0.4353 H         1 UNK         0.0771 
    129 H129       32.3073   26.6329    0.9482 H         1 UNK         0.0771 
    130 H130       33.3089   26.9850    2.6986 H         1 UNK         0.2980 
    131 H131       34.5244   26.7387    4.4953 H         1 UNK         0.0545 
    132 H132       35.6734   28.7768    2.4240 H         1 UNK         0.3459 
    133 H133       37.0227   29.4282    3.3211 H         1 UNK         0.3459 
    134 H134       33.9063   27.8852    6.5974 H         1 UNK         0.0616 
    135 H135       33.0912   29.1433    5.7102 H         1 UNK         0.0616 
    136 H136       33.4638   25.4701    6.3404 H         1 UNK         0.0634 
    137 H137       32.0810   25.4225    7.4055 H         1 UNK         0.0634 
@<TRIPOS>BOND
     1    1    2 1    
     2    1   72 1    
     3    1   73 1    
     4    1   74 1    
     5    2    3 2    
     6    2    4 am   BACKBONE|DICT|INTERRES
     7    4    5 1    
     8    4   75 1    
     9    5    6 1    
    10    5   35 1    
    11    5   76 1    
    12    6    7 1    
    13    6   77 1    
    14    6   78 1    
    15    7    8 1    
    16    8    9 1    
    17    8   79 1    
    18    8   80 1    
    19    9   10 ar   
    20    9   14 ar   
    21   10   11 ar   
    22   10   81 1    
    23   11   12 ar   
    24   11   71 1    
    25   12   13 ar   
    26   12   82 1    
    27   13   14 ar   
    28   13   15 1    
    29   14   83 1    
    30   15   16 1    
    31   15   84 1    
    32   15   85 1    
    33   16   17 1    
    34   17   18 1    
    35   17   86 1    
    36   17   87 1    
    37   18   19 1    
    38   18   37 1    
    39   18   88 1    
    40   19   20 am   BACKBONE|DICT|INTERRES
    41   19   89 1    
    42   20   21 2    
    43   20   22 1    
    44   22   23 1    
    45   22   24 1    
    46   22   90 1    
    47   23   91 1    
    48   23   92 1    
    49   23   93 1    
    50   24   25 am   BACKBONE|DICT|INTERRES
    51   24   94 1    
    52   25   26 2    
    53   25   27 1    
    54   27   28 1    
    55   27   29 1    
    56   27   95 1    
    57   28   96 1    
    58   28   97 1    
    59   28   98 1    
    60   29   30 am   BACKBONE|DICT|INTERRES
    61   29   99 1    
    62   30   31 2    
    63   30   32 1    
    64   32   33 1    
    65   32   34 1    
    66   32  100 1    
    67   33  101 1    
    68   33  102 1    
    69   33  103 1    
    70   34   35 am   BACKBONE|DICT|INTERRES
    71   34  104 1    
    72   35   36 2    
    73   37   38 2    
    74   37   39 am   BACKBONE|DICT|INTERRES
    75   39   40 1    
    76   39  105 1    
    77   40   41 1    
    78   40   42 1    
    79   40  106 1    
    80   41  107 1    
    81   41  108 1    
    82   41  109 1    
    83   42   43 2    
    84   42   44 am   BACKBONE|DICT|INTERRES
    85   44   45 1    
    86   44  110 1    
    87   45   46 1    
    88   45   47 1    
    89   45  111 1    
    90   46  112 1    
    91   46  113 1    
    92   46  114 1    
    93   47   48 2    
    94   47   49 am   BACKBONE|DICT|INTERRES
    95   49   50 1    
    96   49  115 1    
    97   50   51 1    
    98   50   52 1    
    99   50  116 1    
   100   51  117 1    
   101   51  118 1    
   102   51  119 1    
   103   52   53 2    
   104   52   54 am   BACKBONE|DICT|INTERRES
   105   54   55 1    
   106   54  120 1    
   107   55   56 1    
   108   55   57 1    
   109   55  121 1    
   110   56  122 1    
   111   56  123 1    
   112   56  124 1    
   113   57   58 2    
   114   57   59 am   BACKBONE|DICT|INTERRES
   115   59   60 1    
   116   59  125 1    
   117   60   61 1    
   118   60   62 1    
   119   60  126 1    
   120   61  127 1    
   121   61  128 1    
   122   61  129 1    
   123   62   63 2    
   124   62   64 am   BACKBONE|DICT|INTERRES
   125   64   65 1    
   126   64  130 1    
   127   65   66 1    
   128   65   69 1    
   129   65  131 1    
   130   66   67 am   BACKBONE|DICT|INTERRES
   131   66   68 2    
   132   67  132 1    
   133   67  133 1    
   134   69   70 1    
   135   69  134 1    
   136   69  135 1    
   137   70   71 1    
   138   71  136 1    
   139   71  137 1    
@<TRIPOS>SUBSTRUCTURE
     1 UNK         1 GROUP             0       ****    0 ROOT    
