@<TRIPOS>MOLECULE
3R136
137   139    1
SMALL
USER_CHARGES


@<TRIPOS>ATOM
      1 CA         35.6054   26.3053   -2.0388 C.3       0 UNK        -0.1979 
      2 C          34.2933   26.8540   -1.4983 C.2       0 UNK         0.4864 
      3 O          33.8111   27.8769   -1.9867 O.2       0 UNK        -0.5359 
      4 N          33.7236   26.1913   -0.4839 N.am      1 UNK        -0.4318 
      5 CA         32.4333   26.5299    0.1225 C.3       1 UNK         0.0824 
      6 C6         32.2391   25.8418    1.4975 C.3       12 UNK        -0.0944 
      7 S7         32.5388   24.0369    1.4932 S.3       12 UNK        -0.2672 
      8 C8         30.8364   23.3702    1.4973 C.3       12 UNK         0.0333 
      9 C9         30.0735   23.4563    2.8225 C.ar      12 UNK        -0.0807 
     10 C10        30.5711   24.1152    3.9556 C.ar      12 UNK        -0.0894 
     11 C11        29.8140   24.1984    5.1269 C.ar      12 UNK        -0.0804 
     12 C12        28.5598   23.5884    5.1810 C.ar      12 UNK        -0.0824 
     13 C13        28.0495   22.9221    4.0635 C.ar      12 UNK        -0.0762 
     14 C14        28.8094   22.8608    2.8917 C.ar      12 UNK        -0.0782 
     15 C15        26.6632   22.2957    4.1123 C.3       12 UNK         0.0230 
     16 S16        25.4258   23.3230    3.2553 S.3       12 UNK        -0.2608 
     17 C17        25.5254   24.8852    4.1958 C.3       12 UNK        -0.0989 
     18 CA         26.3594   25.9639    3.4448 C.3       5 UNK         0.0716 
     19 N          25.7890   26.3406    2.1448 N.am      5 UNK        -0.4135 
     20 C          24.5956   26.9211    1.9323 C.2       4 UNK         0.5031 
     21 O          23.8244   27.2551    2.8327 O.2       4 UNK        -0.5229 
     22 CA         24.1804   27.1967    0.4722 C.3       4 UNK         0.0329 
     23 CB         24.3073   28.6978    0.1604 C.3       4 UNK        -0.2001 
     24 N          24.9598   26.4444   -0.5118 N.am      4 UNK        -0.4303 
     25 C          24.9302   25.1147   -0.6845 C.2       3 UNK         0.5044 
     26 O          24.1076   24.3746   -0.1456 O.2       3 UNK        -0.5152 
     27 CA         26.0211   24.5019   -1.5883 C.3       3 UNK         0.0319 
     28 CB         25.4120   24.0076   -2.9107 C.3       3 UNK        -0.2001 
     29 N          27.1394   25.4086   -1.8860 N.am      3 UNK        -0.4354 
     30 C          27.9955   25.9120   -0.9852 C.2       2 UNK         0.4964 
     31 O          27.9531   25.6614    0.2220 O.2       2 UNK        -0.5047 
     32 CA         28.9822   26.9585   -1.5172 C.3       2 UNK         0.0288 
     33 CB         28.3173   28.3465   -1.5361 C.3       2 UNK        -0.2113 
     34 N          30.1807   27.0291   -0.6858 N.am      2 UNK        -0.4145 
     35 C          31.2586   26.2526   -0.8407 C.2       1 UNK         0.5006 
     36 O          31.3437   25.3604   -1.6902 O.2       1 UNK        -0.5103 
     37 C          26.6924   27.1937    4.3191 C.2       5 UNK         0.5055 
     38 O          26.6050   27.1196    5.5463 O.2       5 UNK        -0.5220 
     39 N          27.0739   28.3011    3.6700 N.am      6 UNK        -0.4450 
     40 CA         27.4410   29.5854    4.2567 C.3       6 UNK         0.0367 
     41 CB         26.2277   30.2283    4.9654 C.3       6 UNK        -0.1929 
     42 C          27.9360   30.5023    3.1300 C.2       6 UNK         0.5070 
     43 O          27.7338   30.1898    1.9533 O.2       6 UNK        -0.5237 
     44 N          28.5278   31.6380    3.5254 N.am      7 UNK        -0.4739 
     45 CA         28.8541   32.8089    2.6973 C.3       7 UNK         0.0276 
     46 CB         27.5595   33.4633    2.1656 C.3       7 UNK        -0.1927 
     47 C          29.8914   32.5746    1.5794 C.2       7 UNK         0.5013 
     48 O          29.9138   33.3381    0.6116 O.2       7 UNK        -0.5193 
     49 N          30.7567   31.5653    1.7326 N.am      8 UNK        -0.4253 
     50 CA         31.8533   31.2735    0.8125 C.3       8 UNK         0.0242 
     51 CB         31.3408   30.4540   -0.3832 C.3       8 UNK        -0.2000 
     52 C          32.9556   30.5232    1.5616 C.2       8 UNK         0.4948 
     53 O          32.6458   29.6299    2.3548 O.2       8 UNK        -0.5275 
     54 N          34.2142   30.9065    1.2959 N.am      9 UNK        -0.4246 
     55 CA         35.4670   30.3049    1.7833 C.3       9 UNK         0.0261 
     56 CB         35.7063   28.9581    1.0705 C.3       9 UNK        -0.1959 
     57 C          35.5766   30.1663    3.3166 C.2       9 UNK         0.5033 
     58 O          36.2723   29.2682    3.7941 O.2       9 UNK        -0.5390 
     59 N          34.8496   31.0137    4.0629 N.am      10 UNK        -0.4215 
     60 CA         34.6357   30.9472    5.5169 C.3       10 UNK         0.0240 
     61 CB         35.9201   31.3535    6.2710 C.3       10 UNK        -0.1982 
     62 C          34.0710   29.5870    5.9903 C.2       10 UNK         0.4970 
     63 O          34.3644   29.1601    7.1085 O.2       10 UNK        -0.4916 
     64 N          33.2903   28.9255    5.1221 N.am      11 UNK        -0.4279 
     65 CA         32.7949   27.5494    5.2721 C.3       11 UNK         0.1003 
     66 C          33.8997   26.4505    5.1608 C.2       11 UNK         0.5709 
     67 N          35.1061   26.7522    4.6942 N.am      11 UNK        -0.7358 
     68 O          33.6584   25.2884    5.4725 O.2       11 UNK        -0.4999 
     69 C69        31.8481   27.3734    6.5037 C.3       12 UNK        -0.0954 
     70 S70        30.1962   26.7636    6.0340 S.3       12 UNK        -0.2268 
     71 C71        30.3463   24.9724    6.3215 C.3       12 UNK         0.0203 
     72 H72        36.3929   27.0520   -1.9396 H         1 UNK         0.0888 
     73 H73        35.9210   25.4072   -1.5082 H         1 UNK         0.0888 
     74 H74        35.5011   26.0567   -3.0946 H         1 UNK         0.0888 
     75 H75        34.1406   25.3364   -0.1436 H         1 UNK         0.3017 
     76 H76        32.4484   27.6071    0.3033 H         1 UNK         0.0873 
     77 H77        31.2495   26.0580    1.9048 H         1 UNK         0.0745 
     78 H78        32.9427   26.2790    2.2072 H         1 UNK         0.0745 
     79 H79        30.2565   23.8727    0.7218 H         1 UNK         0.0705 
     80 H80        30.8953   22.3215    1.2027 H         1 UNK         0.0705 
     81 H81        31.5405   24.5905    3.9392 H         1 UNK         0.1334 
     82 H82        27.9715   23.6536    6.0860 H         1 UNK         0.1417 
     83 H83        28.4039   22.3598    2.0227 H         1 UNK         0.1562 
     84 H84        26.3465   22.1346    5.1441 H         1 UNK         0.0748 
     85 H85        26.6910   21.3103    3.6450 H         1 UNK         0.0748 
     86 H86        25.9450   24.6737    5.1798 H         1 UNK         0.0940 
     87 H87        24.5125   25.2418    4.3867 H         1 UNK         0.0940 
     88 H88        27.3309   25.5257    3.2128 H         1 UNK         0.0703 
     89 H89        26.3689   26.1033    1.3458 H         1 UNK         0.3081 
     90 H90        23.1327   26.9068    0.3685 H         1 UNK         0.0719 
     91 H91        25.3379   29.0450    0.2503 H         1 UNK         0.0809 
     92 H92        23.9609   28.9262   -0.8477 H         1 UNK         0.0809 
     93 H93        23.7048   29.2915    0.8495 H         1 UNK         0.0809 
     94 H94        25.6537   26.9647   -1.0267 H         1 UNK         0.2990 
     95 H95        26.4283   23.6405   -1.0545 H         1 UNK         0.0690 
     96 H96        26.1531   23.4923   -3.5220 H         1 UNK         0.0788 
     97 H97        25.0018   24.8297   -3.4987 H         1 UNK         0.0788 
     98 H98        24.6004   23.3017   -2.7278 H         1 UNK         0.0788 
     99 H99        27.2359   25.6890   -2.8520 H         1 UNK         0.2993 
    100 H100       29.2668   26.6908   -2.5376 H         1 UNK         0.0949 
    101 H101       28.9929   29.1019   -1.9378 H         1 UNK         0.0767 
    102 H102       27.4262   28.3514   -2.1651 H         1 UNK         0.0767 
    103 H103       28.0152   28.6673   -0.5376 H         1 UNK         0.0767 
    104 H104       30.1483   27.6796    0.0845 H         1 UNK         0.3013 
    105 H105       27.1308   28.2968    2.6581 H         1 UNK         0.3121 
    106 H106       28.2539   29.4271    4.9683 H         1 UNK         0.0774 
    107 H107       26.4713   31.2159    5.3585 H         1 UNK         0.0815 
    108 H108       25.3852   30.3483    4.2830 H         1 UNK         0.0815 
    109 H109       25.8878   29.6316    5.8112 H         1 UNK         0.0815 
    110 H110       28.6721   31.7677    4.5179 H         1 UNK         0.2987 
    111 H111       29.3219   33.5271    3.3725 H         1 UNK         0.0949 
    112 H112       27.7680   34.4213    1.6874 H         1 UNK         0.0806 
    113 H113       27.0638   32.8329    1.4265 H         1 UNK         0.0806 
    114 H114       26.8512   33.6561    2.9713 H         1 UNK         0.0806 
    115 H115       30.7027   30.9746    2.5520 H         1 UNK         0.3010 
    116 H116       32.2691   32.2139    0.4433 H         1 UNK         0.0829 
    117 H117       30.6681   31.0424   -1.0074 H         1 UNK         0.0813 
    118 H118       32.1610   30.1145   -1.0179 H         1 UNK         0.0813 
    119 H119       30.7945   29.5761   -0.0462 H         1 UNK         0.0813 
    120 H120       34.3404   31.6709    0.6457 H         1 UNK         0.3038 
    121 H121       36.2692   30.9830    1.4884 H         1 UNK         0.0769 
    122 H122       36.6875   28.5477    1.3124 H         1 UNK         0.0811 
    123 H123       35.6673   29.0749   -0.0121 H         1 UNK         0.0811 
    124 H124       34.9617   28.2149    1.3582 H         1 UNK         0.0811 
    125 H125       34.3112   31.7143    3.5730 H         1 UNK         0.3204 
    126 H126       33.8679   31.6868    5.7487 H         1 UNK         0.0748 
    127 H127       35.7370   31.4375    7.3430 H         1 UNK         0.0771 
    128 H128       36.7175   30.6224    6.1335 H         1 UNK         0.0771 
    129 H129       36.2903   32.3208    5.9314 H         1 UNK         0.0771 
    130 H130       33.1194   29.3335    4.2070 H         1 UNK         0.2980 
    131 H131       32.2049   27.4026    4.3670 H         1 UNK         0.0545 
    132 H132       35.7930   26.0195    4.6243 H         1 UNK         0.3459 
    133 H133       35.3595   27.6997    4.4306 H         1 UNK         0.3459 
    134 H134       32.2821   26.7334    7.2740 H         1 UNK         0.0616 
    135 H135       31.6784   28.3293    7.0009 H         1 UNK         0.0616 
    136 H136       29.7976   24.7146    7.2284 H         1 UNK         0.0634 
    137 H137       31.3819   24.6880    6.5032 H         1 UNK         0.0634 
@<TRIPOS>BOND
     1    1    2 1    
     2    1   72 1    
     3    1   73 1    
     4    1   74 1    
     5    2    3 2    
     6    2    4 am   BACKBONE|DICT|INTERRES
     7    4    5 1    
     8    4   75 1    
     9    5    6 1    
    10    5   35 1    
    11    5   76 1    
    12    6    7 1    
    13    6   77 1    
    14    6   78 1    
    15    7    8 1    
    16    8    9 1    
    17    8   79 1    
    18    8   80 1    
    19    9   10 ar   
    20    9   14 ar   
    21   10   11 ar   
    22   10   81 1    
    23   11   12 ar   
    24   11   71 1    
    25   12   13 ar   
    26   12   82 1    
    27   13   14 ar   
    28   13   15 1    
    29   14   83 1    
    30   15   16 1    
    31   15   84 1    
    32   15   85 1    
    33   16   17 1    
    34   17   18 1    
    35   17   86 1    
    36   17   87 1    
    37   18   19 1    
    38   18   37 1    
    39   18   88 1    
    40   19   20 am   BACKBONE|DICT|INTERRES
    41   19   89 1    
    42   20   21 2    
    43   20   22 1    
    44   22   23 1    
    45   22   24 1    
    46   22   90 1    
    47   23   91 1    
    48   23   92 1    
    49   23   93 1    
    50   24   25 am   BACKBONE|DICT|INTERRES
    51   24   94 1    
    52   25   26 2    
    53   25   27 1    
    54   27   28 1    
    55   27   29 1    
    56   27   95 1    
    57   28   96 1    
    58   28   97 1    
    59   28   98 1    
    60   29   30 am   BACKBONE|DICT|INTERRES
    61   29   99 1    
    62   30   31 2    
    63   30   32 1    
    64   32   33 1    
    65   32   34 1    
    66   32  100 1    
    67   33  101 1    
    68   33  102 1    
    69   33  103 1    
    70   34   35 am   BACKBONE|DICT|INTERRES
    71   34  104 1    
    72   35   36 2    
    73   37   38 2    
    74   37   39 am   BACKBONE|DICT|INTERRES
    75   39   40 1    
    76   39  105 1    
    77   40   41 1    
    78   40   42 1    
    79   40  106 1    
    80   41  107 1    
    81   41  108 1    
    82   41  109 1    
    83   42   43 2    
    84   42   44 am   BACKBONE|DICT|INTERRES
    85   44   45 1    
    86   44  110 1    
    87   45   46 1    
    88   45   47 1    
    89   45  111 1    
    90   46  112 1    
    91   46  113 1    
    92   46  114 1    
    93   47   48 2    
    94   47   49 am   BACKBONE|DICT|INTERRES
    95   49   50 1    
    96   49  115 1    
    97   50   51 1    
    98   50   52 1    
    99   50  116 1    
   100   51  117 1    
   101   51  118 1    
   102   51  119 1    
   103   52   53 2    
   104   52   54 am   BACKBONE|DICT|INTERRES
   105   54   55 1    
   106   54  120 1    
   107   55   56 1    
   108   55   57 1    
   109   55  121 1    
   110   56  122 1    
   111   56  123 1    
   112   56  124 1    
   113   57   58 2    
   114   57   59 am   BACKBONE|DICT|INTERRES
   115   59   60 1    
   116   59  125 1    
   117   60   61 1    
   118   60   62 1    
   119   60  126 1    
   120   61  127 1    
   121   61  128 1    
   122   61  129 1    
   123   62   63 2    
   124   62   64 am   BACKBONE|DICT|INTERRES
   125   64   65 1    
   126   64  130 1    
   127   65   66 1    
   128   65   69 1    
   129   65  131 1    
   130   66   67 am   BACKBONE|DICT|INTERRES
   131   66   68 2    
   132   67  132 1    
   133   67  133 1    
   134   69   70 1    
   135   69  134 1    
   136   69  135 1    
   137   70   71 1    
   138   71  136 1    
   139   71  137 1    
@<TRIPOS>SUBSTRUCTURE
     1 UNK         1 GROUP             0       ****    0 ROOT    
