@<TRIPOS>MOLECULE
3R136
137   139    1
SMALL
USER_CHARGES


@<TRIPOS>ATOM
      1 CA         28.7013   19.0574   -2.3771 C.3       0 UNK        -0.1979 
      2 C          29.1345   20.5126   -2.2798 C.2       0 UNK         0.4864 
      3 O          29.1263   21.2207   -3.2875 O.2       0 UNK        -0.5359 
      4 N          29.5163   20.9594   -1.0756 N.am      1 UNK        -0.4318 
      5 CA         29.9246   22.3361   -0.7687 C.3       1 UNK         0.0824 
      6 C6         30.6343   22.4428    0.6049 C.3       12 UNK        -0.0944 
      7 S7         29.7563   21.6108    1.9746 S.3       12 UNK        -0.2672 
      8 C8         31.0053   21.7171    3.2951 C.3       12 UNK         0.0333 
      9 C9         31.0892   23.1289    3.8517 C.ar      12 UNK        -0.0807 
     10 C10        32.0720   24.0159    3.4018 C.ar      12 UNK        -0.0894 
     11 C11        32.1140   25.3285    3.8816 C.ar      12 UNK        -0.0804 
     12 C12        31.1632   25.7496    4.8159 C.ar      12 UNK        -0.0824 
     13 C13        30.1792   24.8686    5.2787 C.ar      12 UNK        -0.0762 
     14 C14        30.1611   23.5536    4.8054 C.ar      12 UNK        -0.0782 
     15 C15        29.1312   25.3476    6.2786 C.3       12 UNK         0.0230 
     16 S16        27.4055   25.0168    5.7611 S.3       12 UNK        -0.2608 
     17 C17        27.3639   25.4326    3.9796 C.3       12 UNK        -0.0989 
     18 CA         27.9179   26.8341    3.6208 C.3       5 UNK         0.0716 
     19 N          28.4188   26.8688    2.2466 N.am      5 UNK        -0.4135 
     20 C          29.4811   27.5819    1.8458 C.2       4 UNK         0.5031 
     21 O          30.2162   28.1946    2.6162 O.2       4 UNK        -0.5229 
     22 CA         29.7873   27.6340    0.3360 C.3       4 UNK         0.0329 
     23 CB         30.9902   26.7394   -0.0015 C.3       4 UNK        -0.2001 
     24 N          28.6476   27.2659   -0.5108 N.am      4 UNK        -0.4303 
     25 C          27.5285   27.9982   -0.6194 C.2       3 UNK         0.5044 
     26 O          27.3747   29.0859   -0.0664 O.2       3 UNK        -0.5152 
     27 CA         26.3509   27.4050   -1.4127 C.3       3 UNK         0.0319 
     28 CB         26.3532   27.9417   -2.8521 C.3       3 UNK        -0.2001 
     29 N          26.3064   25.9407   -1.4418 N.am      3 UNK        -0.4354 
     30 C          26.2832   25.1234   -0.3783 C.2       2 UNK         0.4964 
     31 O          26.3107   25.5174    0.7892 O.2       2 UNK        -0.5047 
     32 CA         26.2621   23.6095   -0.6685 C.3       2 UNK         0.0288 
     33 CB         25.7179   23.2602   -2.0720 C.3       2 UNK        -0.2113 
     34 N          27.5622   22.9526   -0.4766 N.am      2 UNK        -0.4145 
     35 C          28.7690   23.3496   -0.9167 C.2       1 UNK         0.5006 
     36 O          28.9922   24.4356   -1.4568 O.2       1 UNK        -0.5103 
     37 C          26.8872   27.9512    3.8670 C.2       5 UNK         0.5055 
     38 O          26.8222   28.4711    4.9814 O.2       5 UNK        -0.5220 
     39 N          26.1186   28.3258    2.8314 N.am      6 UNK        -0.4450 
     40 CA         25.2028   29.4700    2.8600 C.3       6 UNK         0.0367 
     41 CB         24.2639   29.4265    1.6431 C.3       6 UNK        -0.1929 
     42 C          25.9778   30.7962    2.9224 C.2       6 UNK         0.5070 
     43 O          25.7207   31.6169    3.8032 O.2       6 UNK        -0.5237 
     44 N          26.9613   30.9495    2.0279 N.am      7 UNK        -0.4739 
     45 CA         27.9603   32.0146    2.0474 C.3       7 UNK         0.0276 
     46 CB         28.3089   32.3953    0.5962 C.3       7 UNK        -0.1927 
     47 C          29.1838   31.5259    2.8394 C.2       7 UNK         0.5013 
     48 O          30.2552   31.3439    2.2611 O.2       7 UNK        -0.5193 
     49 N          28.9884   31.3042    4.1491 N.am      8 UNK        -0.4253 
     50 CA         29.9172   30.6570    5.0905 C.3       8 UNK         0.0242 
     51 CB         29.3092   30.7021    6.5016 C.3       8 UNK        -0.2000 
     52 C          31.3590   31.2009    5.1163 C.2       8 UNK         0.4948 
     53 O          32.2732   30.4602    5.4771 O.2       8 UNK        -0.5275 
     54 N          31.5460   32.4634    4.7062 N.am      9 UNK        -0.4246 
     55 CA         32.8427   33.1178    4.5100 C.3       9 UNK         0.0261 
     56 CB         32.6055   34.6147    4.2481 C.3       9 UNK        -0.1959 
     57 C          33.7101   32.5033    3.3895 C.2       9 UNK         0.5033 
     58 O          34.8930   32.8382    3.3096 O.2       9 UNK        -0.5390 
     59 N          33.1357   31.6266    2.5498 N.am      10 UNK        -0.4215 
     60 CA         33.8213   30.8897    1.4827 C.3       10 UNK         0.0240 
     61 CB         32.7801   30.1204    0.6543 C.3       10 UNK        -0.1982 
     62 C          34.9321   29.9319    1.9596 C.2       10 UNK         0.4970 
     63 O          35.7722   29.5579    1.1395 O.2       10 UNK        -0.4916 
     64 N          34.9405   29.5584    3.2451 N.am      11 UNK        -0.4279 
     65 CA         36.0088   28.7738    3.8753 C.3       11 UNK         0.1003 
     66 C          36.2554   29.2027    5.3486 C.2       11 UNK         0.5709 
     67 N          37.2016   28.5729    6.0329 N.am      11 UNK        -0.7358 
     68 O          35.6211   30.1156    5.8742 O.2       11 UNK        -0.4999 
     69 C69        35.8387   27.2436    3.6495 C.3       12 UNK        -0.0954 
     70 S70        34.5088   26.4571    4.6225 S.3       12 UNK        -0.2268 
     71 C71        33.1838   26.2922    3.3899 C.3       12 UNK         0.0203 
     72 H72        27.6709   18.9957   -2.7260 H         1 UNK         0.0888 
     73 H73        29.3342   18.5241   -3.0858 H         1 UNK         0.0888 
     74 H74        28.7649   18.5476   -1.4158 H         1 UNK         0.0888 
     75 H75        29.5093   20.3307   -0.2840 H         1 UNK         0.3017 
     76 H76        30.6604   22.6180   -1.5255 H         1 UNK         0.0873 
     77 H77        30.8072   23.4848    0.8753 H         1 UNK         0.0745 
     78 H78        31.6249   21.9926    0.5241 H         1 UNK         0.0745 
     79 H79        31.9751   21.3875    2.9190 H         1 UNK         0.0705 
     80 H80        30.7360   21.0236    4.0931 H         1 UNK         0.0705 
     81 H81        32.7972   23.6874    2.6699 H         1 UNK         0.1334 
     82 H82        31.1909   26.7703    5.1737 H         1 UNK         0.1417 
     83 H83        29.3977   22.8699    5.1518 H         1 UNK         0.1562 
     84 H84        29.2375   26.4167    6.4692 H         1 UNK         0.0748 
     85 H85        29.3082   24.8538    7.2349 H         1 UNK         0.0748 
     86 H86        26.3427   25.3080    3.6135 H         1 UNK         0.0940 
     87 H87        27.9409   24.6635    3.4632 H         1 UNK         0.0940 
     88 H88        28.7546   27.0590    4.2792 H         1 UNK         0.0703 
     89 H89        27.8614   26.3716    1.5584 H         1 UNK         0.3081 
     90 H90        30.0556   28.6665    0.1012 H         1 UNK         0.0719 
     91 H91        30.7854   25.6940    0.2227 H         1 UNK         0.0809 
     92 H92        31.2576   26.8122   -1.0557 H         1 UNK         0.0809 
     93 H93        31.8682   27.0284    0.5773 H         1 UNK         0.0809 
     94 H94        28.6924   26.3621   -0.9743 H         1 UNK         0.2990 
     95 H95        25.4336   27.7415   -0.9262 H         1 UNK         0.0690 
     96 H96        27.2304   27.6053   -3.4064 H         1 UNK         0.0788 
     97 H97        26.3597   29.0329   -2.8620 H         1 UNK         0.0788 
     98 H98        25.4658   27.6208   -3.3981 H         1 UNK         0.0788 
     99 H99        26.3208   25.5115   -2.3557 H         1 UNK         0.2993 
    100 H100       25.5819   23.1760    0.0665 H         1 UNK         0.0949 
    101 H101       26.4003   23.5637   -2.8671 H         1 UNK         0.0767 
    102 H102       25.5651   22.1853   -2.1714 H         1 UNK         0.0767 
    103 H103       24.7530   23.7357   -2.2553 H         1 UNK         0.0767 
    104 H104       27.5275   22.0629    0.0009 H         1 UNK         0.3013 
    105 H105       26.2313   27.8519    1.9471 H         1 UNK         0.3121 
    106 H106       24.5915   29.3940    3.7620 H         1 UNK         0.0774 
    107 H107       23.5385   30.2399    1.6867 H         1 UNK         0.0815 
    108 H108       24.8055   29.5282    0.7027 H         1 UNK         0.0815 
    109 H109       23.7014   28.4933    1.6080 H         1 UNK         0.0815 
    110 H110       27.1110   30.2179    1.3337 H         1 UNK         0.2987 
    111 H111       27.5643   32.9023    2.5457 H         1 UNK         0.0949 
    112 H112       28.7184   31.5486    0.0433 H         1 UNK         0.0806 
    113 H113       27.4301   32.7508    0.0584 H         1 UNK         0.0806 
    114 H114       29.0522   33.1931    0.5697 H         1 UNK         0.0806 
    115 H115       28.0578   31.4790    4.5053 H         1 UNK         0.3010 
    116 H116       29.9856   29.6103    4.7902 H         1 UNK         0.0829 
    117 H117       29.9558   30.2000    7.2229 H         1 UNK         0.0813 
    118 H118       29.1680   31.7269    6.8470 H         1 UNK         0.0813 
    119 H119       28.3426   30.1990    6.5345 H         1 UNK         0.0813 
    120 H120       30.7310   32.9848    4.4187 H         1 UNK         0.3038 
    121 H121       33.4070   33.0161    5.4394 H         1 UNK         0.0769 
    122 H122       33.5511   35.1476    4.1382 H         1 UNK         0.0811 
    123 H123       32.0677   35.0831    5.0726 H         1 UNK         0.0811 
    124 H124       32.0322   34.7779    3.3345 H         1 UNK         0.0811 
    125 H125       32.1362   31.4515    2.6382 H         1 UNK         0.3204 
    126 H126       34.2957   31.6272    0.8324 H         1 UNK         0.0748 
    127 H127       33.2495   29.5626   -0.1572 H         1 UNK         0.0771 
    128 H128       32.2354   29.4064    1.2722 H         1 UNK         0.0771 
    129 H129       32.0517   30.7953    0.2041 H         1 UNK         0.0771 
    130 H130       34.2470   29.9289    3.8834 H         1 UNK         0.2980 
    131 H131       36.9364   29.0623    3.3770 H         1 UNK         0.0545 
    132 H132       37.7332   27.8230    5.6199 H         1 UNK         0.3459 
    133 H133       37.3778   28.8460    6.9869 H         1 UNK         0.3459 
    134 H134       35.6863   27.0372    2.5894 H         1 UNK         0.0616 
    135 H135       36.7678   26.7319    3.9037 H         1 UNK         0.0616 
    136 H136       33.5992   25.9416    2.4441 H         1 UNK         0.0634 
    137 H137       32.7480   27.2734    3.1951 H         1 UNK         0.0634 
@<TRIPOS>BOND
     1    1    2 1    
     2    1   72 1    
     3    1   73 1    
     4    1   74 1    
     5    2    3 2    
     6    2    4 am   BACKBONE|DICT|INTERRES
     7    4    5 1    
     8    4   75 1    
     9    5    6 1    
    10    5   35 1    
    11    5   76 1    
    12    6    7 1    
    13    6   77 1    
    14    6   78 1    
    15    7    8 1    
    16    8    9 1    
    17    8   79 1    
    18    8   80 1    
    19    9   10 ar   
    20    9   14 ar   
    21   10   11 ar   
    22   10   81 1    
    23   11   12 ar   
    24   11   71 1    
    25   12   13 ar   
    26   12   82 1    
    27   13   14 ar   
    28   13   15 1    
    29   14   83 1    
    30   15   16 1    
    31   15   84 1    
    32   15   85 1    
    33   16   17 1    
    34   17   18 1    
    35   17   86 1    
    36   17   87 1    
    37   18   19 1    
    38   18   37 1    
    39   18   88 1    
    40   19   20 am   BACKBONE|DICT|INTERRES
    41   19   89 1    
    42   20   21 2    
    43   20   22 1    
    44   22   23 1    
    45   22   24 1    
    46   22   90 1    
    47   23   91 1    
    48   23   92 1    
    49   23   93 1    
    50   24   25 am   BACKBONE|DICT|INTERRES
    51   24   94 1    
    52   25   26 2    
    53   25   27 1    
    54   27   28 1    
    55   27   29 1    
    56   27   95 1    
    57   28   96 1    
    58   28   97 1    
    59   28   98 1    
    60   29   30 am   BACKBONE|DICT|INTERRES
    61   29   99 1    
    62   30   31 2    
    63   30   32 1    
    64   32   33 1    
    65   32   34 1    
    66   32  100 1    
    67   33  101 1    
    68   33  102 1    
    69   33  103 1    
    70   34   35 am   BACKBONE|DICT|INTERRES
    71   34  104 1    
    72   35   36 2    
    73   37   38 2    
    74   37   39 am   BACKBONE|DICT|INTERRES
    75   39   40 1    
    76   39  105 1    
    77   40   41 1    
    78   40   42 1    
    79   40  106 1    
    80   41  107 1    
    81   41  108 1    
    82   41  109 1    
    83   42   43 2    
    84   42   44 am   BACKBONE|DICT|INTERRES
    85   44   45 1    
    86   44  110 1    
    87   45   46 1    
    88   45   47 1    
    89   45  111 1    
    90   46  112 1    
    91   46  113 1    
    92   46  114 1    
    93   47   48 2    
    94   47   49 am   BACKBONE|DICT|INTERRES
    95   49   50 1    
    96   49  115 1    
    97   50   51 1    
    98   50   52 1    
    99   50  116 1    
   100   51  117 1    
   101   51  118 1    
   102   51  119 1    
   103   52   53 2    
   104   52   54 am   BACKBONE|DICT|INTERRES
   105   54   55 1    
   106   54  120 1    
   107   55   56 1    
   108   55   57 1    
   109   55  121 1    
   110   56  122 1    
   111   56  123 1    
   112   56  124 1    
   113   57   58 2    
   114   57   59 am   BACKBONE|DICT|INTERRES
   115   59   60 1    
   116   59  125 1    
   117   60   61 1    
   118   60   62 1    
   119   60  126 1    
   120   61  127 1    
   121   61  128 1    
   122   61  129 1    
   123   62   63 2    
   124   62   64 am   BACKBONE|DICT|INTERRES
   125   64   65 1    
   126   64  130 1    
   127   65   66 1    
   128   65   69 1    
   129   65  131 1    
   130   66   67 am   BACKBONE|DICT|INTERRES
   131   66   68 2    
   132   67  132 1    
   133   67  133 1    
   134   69   70 1    
   135   69  134 1    
   136   69  135 1    
   137   70   71 1    
   138   71  136 1    
   139   71  137 1    
@<TRIPOS>SUBSTRUCTURE
     1 UNK         1 GROUP             0       ****    0 ROOT    
