@<TRIPOS>MOLECULE
3R136
137   139    1
SMALL
USER_CHARGES


@<TRIPOS>ATOM
      1 CA         34.3365   24.2357   -1.5214 C.3       0 UNK        -0.1979 
      2 C          33.2057   24.0541   -0.5198 C.2       0 UNK         0.4864 
      3 O          33.4283   24.1840    0.6834 O.2       0 UNK        -0.5359 
      4 N          31.9963   23.7616   -1.0076 N.am      1 UNK        -0.4318 
      5 CA         30.7769   23.6058   -0.2205 C.3       1 UNK         0.0824 
      6 C6         30.6998   22.2121    0.4546 C.3       12 UNK        -0.0944 
      7 S7         29.2963   22.0158    1.6086 S.3       12 UNK        -0.2672 
      8 C8         30.0748   22.2979    3.2284 C.3       12 UNK         0.0333 
      9 C9         29.9591   23.7485    3.6741 C.ar      12 UNK        -0.0807 
     10 C10        30.9705   24.6672    3.3780 C.ar      12 UNK        -0.0894 
     11 C11        30.9012   25.9801    3.8579 C.ar      12 UNK        -0.0804 
     12 C12        29.8030   26.3713    4.6295 C.ar      12 UNK        -0.0824 
     13 C13        28.7769   25.4669    4.9196 C.ar      12 UNK        -0.0762 
     14 C14        28.8584   24.1587    4.4334 C.ar      12 UNK        -0.0782 
     15 C15        27.6051   25.8843    5.7992 C.3       12 UNK         0.0230 
     16 S16        26.1715   26.4511    4.8291 S.3       12 UNK        -0.2608 
     17 C17        26.7628   28.0574    4.1954 C.3       12 UNK        -0.0989 
     18 CA         27.0206   28.0106    2.6637 C.3       5 UNK         0.0716 
     19 N          25.8021   27.7468    1.8803 N.am      5 UNK        -0.4135 
     20 C          24.7240   28.5440    1.7766 C.2       4 UNK         0.5031 
     21 O          24.6122   29.6188    2.3674 O.2       4 UNK        -0.5229 
     22 CA         23.5928   28.1162    0.8197 C.3       4 UNK         0.0329 
     23 CB         23.5235   29.0727   -0.3841 C.3       4 UNK        -0.2001 
     24 N          23.7334   26.7480    0.3198 N.am      4 UNK        -0.4303 
     25 C          23.3967   25.6425    0.9977 C.2       3 UNK         0.5044 
     26 O          22.8449   25.6526    2.0981 O.2       3 UNK        -0.5152 
     27 CA         23.7606   24.2946    0.3440 C.3       3 UNK         0.0319 
     28 CB         22.5534   23.7245   -0.4183 C.3       3 UNK        -0.2001 
     29 N          24.9208   24.3526   -0.5582 N.am      3 UNK        -0.4354 
     30 C          26.1598   24.6993   -0.1844 C.2       2 UNK         0.4964 
     31 O          26.4560   25.0682    0.9547 O.2       2 UNK        -0.5047 
     32 CA         27.2420   24.6942   -1.2657 C.3       2 UNK         0.0288 
     33 CB         27.3078   26.0553   -1.9844 C.3       2 UNK        -0.2113 
     34 N          28.5079   24.4178   -0.6001 N.am      2 UNK        -0.4145 
     35 C          29.5937   23.8826   -1.1624 C.2       1 UNK         0.5006 
     36 O          29.6893   23.6116   -2.3635 O.2       1 UNK        -0.5103 
     37 C          27.8118   29.2382    2.1467 C.2       5 UNK         0.5055 
     38 O          28.5743   29.8412    2.9022 O.2       5 UNK        -0.5220 
     39 N          27.6309   29.5786    0.8622 N.am      6 UNK        -0.4450 
     40 CA         28.2112   30.7517    0.2012 C.3       6 UNK         0.0367 
     41 CB         27.1571   31.3320   -0.7596 C.3       6 UNK        -0.1929 
     42 C          29.5210   30.4426   -0.5489 C.2       6 UNK         0.5070 
     43 O          30.0623   31.3350   -1.2020 O.2       6 UNK        -0.5237 
     44 N          30.0022   29.1933   -0.4731 N.am      7 UNK        -0.4739 
     45 CA         31.1924   28.7030   -1.1793 C.3       7 UNK         0.0276 
     46 CB         31.2164   27.1699   -1.1031 C.3       7 UNK        -0.1927 
     47 C          32.5267   29.2871   -0.6762 C.2       7 UNK         0.5013 
     48 O          33.5213   29.2183   -1.3996 O.2       7 UNK        -0.5193 
     49 N          32.5302   29.8460    0.5371 N.am      8 UNK        -0.4253 
     50 CA         33.6509   30.5376    1.1636 C.3       8 UNK         0.0242 
     51 CB         34.5712   29.5193    1.8627 C.3       8 UNK        -0.2000 
     52 C          33.0796   31.5479    2.1646 C.2       8 UNK         0.4948 
     53 O          31.8899   31.4803    2.4867 O.2       8 UNK        -0.5275 
     54 N          33.9384   32.4489    2.6616 N.am      9 UNK        -0.4246 
     55 CA         33.5971   33.4244    3.7053 C.3       9 UNK         0.0261 
     56 CB         34.7484   34.4309    3.8657 C.3       9 UNK        -0.1959 
     57 C          33.2586   32.7673    5.0574 C.2       9 UNK         0.5033 
     58 O          32.4048   33.2795    5.7832 O.2       9 UNK        -0.5390 
     59 N          33.9154   31.6398    5.3521 N.am      10 UNK        -0.4215 
     60 CA         33.6722   30.7627    6.4903 C.3       10 UNK         0.0240 
     61 CB         34.2402   31.3805    7.7832 C.3       10 UNK        -0.1982 
     62 C          34.3384   29.4152    6.1908 C.2       10 UNK         0.4970 
     63 O          35.3371   29.3846    5.4660 O.2       10 UNK        -0.4916 
     64 N          33.7908   28.3461    6.7752 N.am      11 UNK        -0.4279 
     65 CA         34.3331   26.9765    6.7328 C.3       11 UNK         0.1003 
     66 C          34.5730   26.3848    8.1545 C.2       11 UNK         0.5709 
     67 N          34.4530   27.1553    9.2308 N.am      11 UNK        -0.7358 
     68 O          34.9001   25.2080    8.2907 O.2       11 UNK        -0.4999 
     69 C69        33.4624   26.0425    5.8467 C.3       12 UNK        -0.0954 
     70 S70        33.6632   26.3758    4.0628 S.3       12 UNK        -0.2268 
     71 C71        32.0158   26.9790    3.5660 C.3       12 UNK         0.0203 
     72 H72        33.9979   24.0983   -2.5482 H         1 UNK         0.0888 
     73 H73        35.1298   23.5149   -1.3261 H         1 UNK         0.0888 
     74 H74        34.7558   25.2375   -1.4341 H         1 UNK         0.0888 
     75 H75        31.8421   23.6850   -2.0062 H         1 UNK         0.3017 
     76 H76        30.7745   24.3781    0.5509 H         1 UNK         0.0873 
     77 H77        31.6269   22.0073    0.9911 H         1 UNK         0.0745 
     78 H78        30.6265   21.4300   -0.3036 H         1 UNK         0.0745 
     79 H79        29.5845   21.6534    3.9596 H         1 UNK         0.0705 
     80 H80        31.1195   21.9844    3.2153 H         1 UNK         0.0705 
     81 H81        31.8285   24.3545    2.7982 H         1 UNK         0.1334 
     82 H82        29.7545   27.3798    5.0157 H         1 UNK         0.1417 
     83 H83        28.0730   23.4521    4.6657 H         1 UNK         0.1562 
     84 H84        27.9083   26.6661    6.4975 H         1 UNK         0.0748 
     85 H85        27.2939   25.0396    6.4158 H         1 UNK         0.0748 
     86 H86        27.6620   28.3410    4.7422 H         1 UNK         0.0940 
     87 H87        26.0253   28.8222    4.4423 H         1 UNK         0.0940 
     88 H88        27.6789   27.1611    2.4734 H         1 UNK         0.0703 
     89 H89        25.7933   26.8443    1.4150 H         1 UNK         0.3081 
     90 H90        22.6538   28.1945    1.3722 H         1 UNK         0.0719 
     91 H91        24.4367   29.0442   -0.9797 H         1 UNK         0.0809 
     92 H92        22.6874   28.8260   -1.0388 H         1 UNK         0.0809 
     93 H93        23.3806   30.1041   -0.0579 H         1 UNK         0.0809 
     94 H94        24.1591   26.6354   -0.5884 H         1 UNK         0.2990 
     95 H95        24.0102   23.6040    1.1525 H         1 UNK         0.0690 
     96 H96        22.7609   22.7253   -0.8018 H         1 UNK         0.0788 
     97 H97        22.2715   24.3574   -1.2608 H         1 UNK         0.0788 
     98 H98        21.6825   23.6435    0.2340 H         1 UNK         0.0788 
     99 H99        24.7582   24.0816   -1.5181 H         1 UNK         0.2993 
    100 H100       27.0266   23.8992   -1.9833 H         1 UNK         0.0949 
    101 H101       27.5354   26.8671   -1.2925 H         1 UNK         0.0767 
    102 H102       28.0732   26.0559   -2.7607 H         1 UNK         0.0767 
    103 H103       26.3595   26.2910   -2.4690 H         1 UNK         0.0767 
    104 H104       28.4729   24.5478    0.4051 H         1 UNK         0.3013 
    105 H105       26.9973   29.0212    0.3091 H         1 UNK         0.3121 
    106 H106       28.4439   31.5143    0.9481 H         1 UNK         0.0774 
    107 H107       26.9105   30.6334   -1.5604 H         1 UNK         0.0815 
    108 H108       26.2347   31.5795   -0.2333 H         1 UNK         0.0815 
    109 H109       27.5149   32.2503   -1.2275 H         1 UNK         0.0815 
    110 H110       29.5017   28.5275    0.0956 H         1 UNK         0.2987 
    111 H111       31.0983   28.9897   -2.2291 H         1 UNK         0.0949 
    112 H112       30.3210   26.7413   -1.5519 H         1 UNK         0.0806 
    113 H113       32.0718   26.7670   -1.6471 H         1 UNK         0.0806 
    114 H114       31.2875   26.8168   -0.0736 H         1 UNK         0.0806 
    115 H115       31.6581   29.9329    1.0459 H         1 UNK         0.3010 
    116 H116       34.2102   31.0844    0.4010 H         1 UNK         0.0829 
    117 H117       35.4547   30.0034    2.2799 H         1 UNK         0.0813 
    118 H118       34.9216   28.7538    1.1701 H         1 UNK         0.0813 
    119 H119       34.0600   29.0167    2.6840 H         1 UNK         0.0813 
    120 H120       34.8947   32.4470    2.3349 H         1 UNK         0.3038 
    121 H121       32.7101   33.9702    3.3754 H         1 UNK         0.0769 
    122 H122       34.9435   34.9640    2.9348 H         1 UNK         0.0811 
    123 H123       35.6737   33.9431    4.1753 H         1 UNK         0.0811 
    124 H124       34.5072   35.1802    4.6212 H         1 UNK         0.0811 
    125 H125       34.6014   31.2778    4.7007 H         1 UNK         0.3204 
    126 H126       32.5952   30.6120    6.5926 H         1 UNK         0.0748 
    127 H127       34.0802   30.7221    8.6379 H         1 UNK         0.0771 
    128 H128       35.3135   31.5598    7.7041 H         1 UNK         0.0771 
    129 H129       33.7600   32.3306    8.0177 H         1 UNK         0.0771 
    130 H130       32.9681   28.4657    7.3487 H         1 UNK         0.2980 
    131 H131       35.3341   27.0022    6.2979 H         1 UNK         0.0545 
    132 H132       34.2395   28.1355    9.1499 H         1 UNK         0.3459 
    133 H133       34.6215   26.7521   10.1393 H         1 UNK         0.3459 
    134 H134       32.4135   26.1130    6.1375 H         1 UNK         0.0616 
    135 H135       33.7395   24.9960    5.9855 H         1 UNK         0.0616 
    136 H136       31.8309   27.9316    4.0657 H         1 UNK         0.0634 
    137 H137       32.0294   27.1894    2.4956 H         1 UNK         0.0634 
@<TRIPOS>BOND
     1    1    2 1    
     2    1   72 1    
     3    1   73 1    
     4    1   74 1    
     5    2    3 2    
     6    2    4 am   BACKBONE|DICT|INTERRES
     7    4    5 1    
     8    4   75 1    
     9    5    6 1    
    10    5   35 1    
    11    5   76 1    
    12    6    7 1    
    13    6   77 1    
    14    6   78 1    
    15    7    8 1    
    16    8    9 1    
    17    8   79 1    
    18    8   80 1    
    19    9   10 ar   
    20    9   14 ar   
    21   10   11 ar   
    22   10   81 1    
    23   11   12 ar   
    24   11   71 1    
    25   12   13 ar   
    26   12   82 1    
    27   13   14 ar   
    28   13   15 1    
    29   14   83 1    
    30   15   16 1    
    31   15   84 1    
    32   15   85 1    
    33   16   17 1    
    34   17   18 1    
    35   17   86 1    
    36   17   87 1    
    37   18   19 1    
    38   18   37 1    
    39   18   88 1    
    40   19   20 am   BACKBONE|DICT|INTERRES
    41   19   89 1    
    42   20   21 2    
    43   20   22 1    
    44   22   23 1    
    45   22   24 1    
    46   22   90 1    
    47   23   91 1    
    48   23   92 1    
    49   23   93 1    
    50   24   25 am   BACKBONE|DICT|INTERRES
    51   24   94 1    
    52   25   26 2    
    53   25   27 1    
    54   27   28 1    
    55   27   29 1    
    56   27   95 1    
    57   28   96 1    
    58   28   97 1    
    59   28   98 1    
    60   29   30 am   BACKBONE|DICT|INTERRES
    61   29   99 1    
    62   30   31 2    
    63   30   32 1    
    64   32   33 1    
    65   32   34 1    
    66   32  100 1    
    67   33  101 1    
    68   33  102 1    
    69   33  103 1    
    70   34   35 am   BACKBONE|DICT|INTERRES
    71   34  104 1    
    72   35   36 2    
    73   37   38 2    
    74   37   39 am   BACKBONE|DICT|INTERRES
    75   39   40 1    
    76   39  105 1    
    77   40   41 1    
    78   40   42 1    
    79   40  106 1    
    80   41  107 1    
    81   41  108 1    
    82   41  109 1    
    83   42   43 2    
    84   42   44 am   BACKBONE|DICT|INTERRES
    85   44   45 1    
    86   44  110 1    
    87   45   46 1    
    88   45   47 1    
    89   45  111 1    
    90   46  112 1    
    91   46  113 1    
    92   46  114 1    
    93   47   48 2    
    94   47   49 am   BACKBONE|DICT|INTERRES
    95   49   50 1    
    96   49  115 1    
    97   50   51 1    
    98   50   52 1    
    99   50  116 1    
   100   51  117 1    
   101   51  118 1    
   102   51  119 1    
   103   52   53 2    
   104   52   54 am   BACKBONE|DICT|INTERRES
   105   54   55 1    
   106   54  120 1    
   107   55   56 1    
   108   55   57 1    
   109   55  121 1    
   110   56  122 1    
   111   56  123 1    
   112   56  124 1    
   113   57   58 2    
   114   57   59 am   BACKBONE|DICT|INTERRES
   115   59   60 1    
   116   59  125 1    
   117   60   61 1    
   118   60   62 1    
   119   60  126 1    
   120   61  127 1    
   121   61  128 1    
   122   61  129 1    
   123   62   63 2    
   124   62   64 am   BACKBONE|DICT|INTERRES
   125   64   65 1    
   126   64  130 1    
   127   65   66 1    
   128   65   69 1    
   129   65  131 1    
   130   66   67 am   BACKBONE|DICT|INTERRES
   131   66   68 2    
   132   67  132 1    
   133   67  133 1    
   134   69   70 1    
   135   69  134 1    
   136   69  135 1    
   137   70   71 1    
   138   71  136 1    
   139   71  137 1    
@<TRIPOS>SUBSTRUCTURE
     1 UNK         1 GROUP             0       ****    0 ROOT    
