@<TRIPOS>MOLECULE
3R136
137   139    1
SMALL
USER_CHARGES


@<TRIPOS>ATOM
      1 CA         24.5808   22.7756    1.9967 C.3       0 UNK        -0.1979 
      2 C          25.8562   22.1299    1.4746 C.2       0 UNK         0.4864 
      3 O          26.3930   21.2263    2.1173 O.2       0 UNK        -0.5359 
      4 N          26.3411   22.5882    0.3181 N.am      1 UNK        -0.4318 
      5 CA         27.5539   22.1081   -0.3459 C.3       1 UNK         0.0824 
      6 C6         28.8516   22.7023    0.2810 C.3       12 UNK        -0.0944 
      7 S7         28.9054   24.5308    0.2676 S.3       12 UNK        -0.2672 
      8 C8         30.6933   24.8688    0.1579 C.3       12 UNK         0.0333 
      9 C9         31.4759   24.7902    1.4708 C.ar      12 UNK        -0.0807 
     10 C10        32.8425   25.0829    1.4274 C.ar      12 UNK        -0.0894 
     11 C11        33.6222   25.0521    2.5857 C.ar      12 UNK        -0.0804 
     12 C12        33.0267   24.7211    3.8050 C.ar      12 UNK        -0.0824 
     13 C13        31.6623   24.4275    3.8717 C.ar      12 UNK        -0.0762 
     14 C14        30.8928   24.4595    2.7041 C.ar      12 UNK        -0.0782 
     15 C15        31.0325   24.0629    5.2086 C.3       12 UNK         0.0230 
     16 S16        30.4066   25.5330    6.0858 S.3       12 UNK        -0.2608 
     17 C17        28.7095   25.6870    5.4315 C.3       12 UNK        -0.0989 
     18 CA         28.5723   26.7616    4.3229 C.3       5 UNK         0.0716 
     19 N          27.4608   26.4387    3.4171 N.am      5 UNK        -0.4135 
     20 C          27.2039   27.0730    2.2673 C.2       4 UNK         0.5031 
     21 O          27.8599   28.0301    1.8493 O.2       4 UNK        -0.5229 
     22 CA         25.9791   26.6017    1.4801 C.3       4 UNK         0.0329 
     23 CB         24.7046   27.3085    1.9706 C.3       4 UNK        -0.2001 
     24 N          26.2052   26.9189    0.0753 N.am      4 UNK        -0.4303 
     25 C          25.8935   26.1299   -0.9559 C.2       3 UNK         0.5044 
     26 O          25.2504   25.0834   -0.8431 O.2       3 UNK        -0.5152 
     27 CA         26.4505   26.5182   -2.3353 C.3       3 UNK         0.0319 
     28 CB         27.1894   27.8733   -2.3750 C.3       3 UNK        -0.2001 
     29 N          27.3735   25.4532   -2.7033 N.am      3 UNK        -0.4354 
     30 C          27.3867   24.7667   -3.8522 C.2       2 UNK         0.4964 
     31 O          26.7345   25.0731   -4.8507 O.2       2 UNK        -0.5047 
     32 CA         28.2595   23.4935   -3.8703 C.3       2 UNK         0.0288 
     33 CB         29.6599   23.8052   -4.4227 C.3       2 UNK        -0.2113 
     34 N          28.3872   22.8931   -2.5359 N.am      2 UNK        -0.4145 
     35 C          27.3696   22.3379   -1.8600 C.2       1 UNK         0.5006 
     36 O          26.2903   22.0512   -2.3847 O.2       1 UNK        -0.5103 
     37 C          28.4797   28.1952    4.9001 C.2       5 UNK         0.5055 
     38 O          29.5086   28.8204    5.1534 O.2       5 UNK        -0.5220 
     39 N          27.2488   28.7074    5.0566 N.am      6 UNK        -0.4450 
     40 CA         26.9674   30.0918    5.4443 C.3       6 UNK         0.0367 
     41 CB         25.4940   30.2103    5.8664 C.3       6 UNK        -0.1929 
     42 C          27.2906   31.1111    4.3351 C.2       6 UNK         0.5070 
     43 O          27.6328   32.2501    4.6527 O.2       6 UNK        -0.5237 
     44 N          27.1754   30.6978    3.0638 N.am      7 UNK        -0.4739 
     45 CA         27.5437   31.5078    1.9000 C.3       7 UNK         0.0276 
     46 CB         26.7660   31.0370    0.6593 C.3       7 UNK        -0.1927 
     47 C          29.0589   31.4569    1.6586 C.2       7 UNK         0.5013 
     48 O          29.6726   32.4983    1.4228 O.2       7 UNK        -0.5193 
     49 N          29.6510   30.2612    1.7877 N.am      8 UNK        -0.4253 
     50 CA         31.0930   29.9997    1.7311 C.3       8 UNK         0.0242 
     51 CB         31.3120   28.5115    1.4004 C.3       8 UNK        -0.2000 
     52 C          31.8233   30.4293    3.0228 C.2       8 UNK         0.4948 
     53 O          32.6313   29.6701    3.5591 O.2       8 UNK        -0.5275 
     54 N          31.5449   31.6538    3.4934 N.am      9 UNK        -0.4246 
     55 CA         32.0149   32.2300    4.7588 C.3       9 UNK         0.0261 
     56 CB         31.3771   33.6154    4.9470 C.3       9 UNK        -0.1959 
     57 C          33.5449   32.3132    4.9044 C.2       9 UNK         0.5033 
     58 O          34.0420   32.3101    6.0316 O.2       9 UNK        -0.5390 
     59 N          34.2668   32.3368    3.7745 N.am      10 UNK        -0.4215 
     60 CA         35.7282   32.2521    3.6959 C.3       10 UNK         0.0240 
     61 CB         36.1636   32.4089    2.2298 C.3       10 UNK        -0.1982 
     62 C          36.3144   30.9579    4.2956 C.2       10 UNK         0.4970 
     63 O          37.4707   30.9726    4.7199 O.2       10 UNK        -0.4916 
     64 N          35.5180   29.8807    4.3424 N.am      11 UNK        -0.4279 
     65 CA         35.8563   28.6252    5.0278 C.3       11 UNK         0.1003 
     66 C          35.7104   28.6906    6.5779 C.2       11 UNK         0.5709 
     67 N          35.1854   29.7599    7.1677 N.am      11 UNK        -0.7358 
     68 O          36.0999   27.7506    7.2671 O.2       11 UNK        -0.4999 
     69 C69        35.0692   27.4251    4.4409 C.3       12 UNK        -0.0954 
     70 S70        35.4151   27.1595    2.6691 S.3       12 UNK        -0.2268 
     71 C71        35.1077   25.3732    2.5133 C.3       12 UNK         0.0203 
     72 H72        24.2005   23.5352    1.3134 H         1 UNK         0.0888 
     73 H73        23.8054   22.0214    2.1284 H         1 UNK         0.0888 
     74 H74        24.7657   23.2474    2.9612 H         1 UNK         0.0888 
     75 H75        25.8487   23.3257   -0.1819 H         1 UNK         0.3017 
     76 H76        27.5969   21.0232   -0.2277 H         1 UNK         0.0873 
     77 H77        29.7365   22.2948   -0.2103 H         1 UNK         0.0745 
     78 H78        28.9303   22.3779    1.3196 H         1 UNK         0.0745 
     79 H79        31.1443   24.1968   -0.5734 H         1 UNK         0.0705 
     80 H80        30.8085   25.8754   -0.2453 H         1 UNK         0.0705 
     81 H81        33.3038   25.3463    0.4850 H         1 UNK         0.1334 
     82 H82        33.6247   24.6976    4.7056 H         1 UNK         0.1417 
     83 H83        29.8390   24.2337    2.7731 H         1 UNK         0.1562 
     84 H84        31.7775   23.5782    5.8416 H         1 UNK         0.0748 
     85 H85        30.2392   23.3267    5.0728 H         1 UNK         0.0748 
     86 H86        28.0313   25.8911    6.2627 H         1 UNK         0.0940 
     87 H87        28.4064   24.7102    5.0521 H         1 UNK         0.0940 
     88 H88        29.4750   26.7343    3.7095 H         1 UNK         0.0703 
     89 H89        26.8618   25.6757    3.6964 H         1 UNK         0.3081 
     90 H90        25.8805   25.5223    1.6116 H         1 UNK         0.0719 
     91 H91        24.7795   28.3923    1.8705 H         1 UNK         0.0809 
     92 H92        23.8326   26.9822    1.4035 H         1 UNK         0.0809 
     93 H93        24.5074   27.0868    3.0201 H         1 UNK         0.0809 
     94 H94        26.8172   27.7104   -0.0756 H         1 UNK         0.2990 
     95 H95        25.6061   26.5516   -3.0269 H         1 UNK         0.0690 
     96 H96        27.5374   28.0932   -3.3845 H         1 UNK         0.0788 
     97 H97        28.0623   27.8877   -1.7203 H         1 UNK         0.0788 
     98 H98        26.5315   28.6923   -2.0808 H         1 UNK         0.0788 
     99 H99        27.9269   25.0935   -1.9369 H         1 UNK         0.2993 
    100 H100       27.7774   22.7691   -4.5306 H         1 UNK         0.0949 
    101 H101       29.5964   24.2327   -5.4244 H         1 UNK         0.0767 
    102 H102       30.1930   24.5212   -3.7957 H         1 UNK         0.0767 
    103 H103       30.2676   22.9029   -4.4950 H         1 UNK         0.0767 
    104 H104       29.2460   23.0766   -2.0378 H         1 UNK         0.3013 
    105 H105       26.4536   28.1225    4.8474 H         1 UNK         0.3121 
    106 H106       27.5905   30.3371    6.3073 H         1 UNK         0.0774 
    107 H107       25.2620   31.2271    6.1866 H         1 UNK         0.0815 
    108 H108       24.8164   29.9652    5.0474 H         1 UNK         0.0815 
    109 H109       25.2654   29.5498    6.7030 H         1 UNK         0.0815 
    110 H110       26.9559   29.7276    2.8843 H         1 UNK         0.2987 
    111 H111       27.2699   32.5481    2.0916 H         1 UNK         0.0949 
    112 H112       27.0211   30.0168    0.3752 H         1 UNK         0.0806 
    113 H113       25.6897   31.0794    0.8263 H         1 UNK         0.0806 
    114 H114       26.9855   31.6743   -0.1983 H         1 UNK         0.0806 
    115 H115       29.0565   29.4543    1.9636 H         1 UNK         0.3010 
    116 H116       31.5173   30.5877    0.9148 H         1 UNK         0.0829 
    117 H117       30.8067   28.2322    0.4762 H         1 UNK         0.0813 
    118 H118       32.3720   28.2865    1.2734 H         1 UNK         0.0813 
    119 H119       30.9383   27.8645    2.1945 H         1 UNK         0.0813 
    120 H120       30.8891   32.2109    2.9541 H         1 UNK         0.3038 
    121 H121       31.6550   31.5768    5.5567 H         1 UNK         0.0769 
    122 H122       31.6679   34.3047    4.1533 H         1 UNK         0.0811 
    123 H123       31.6813   34.0609    5.8953 H         1 UNK         0.0811 
    124 H124       30.2883   33.5521    4.9554 H         1 UNK         0.0811 
    125 H125       33.7640   32.3335    2.8993 H         1 UNK         0.3204 
    126 H126       36.1360   33.0880    4.2682 H         1 UNK         0.0748 
    127 H127       35.8311   33.3608    1.8152 H         1 UNK         0.0771 
    128 H128       37.2506   32.3814    2.1405 H         1 UNK         0.0771 
    129 H129       35.7652   31.6097    1.6032 H         1 UNK         0.0771 
    130 H130       34.5689   29.9365    3.9845 H         1 UNK         0.2980 
    131 H131       36.9149   28.4283    4.8480 H         1 UNK         0.0545 
    132 H132       35.1112   29.7750    8.1721 H         1 UNK         0.3459 
    133 H133       34.8631   30.5568    6.6302 H         1 UNK         0.3459 
    134 H134       33.9946   27.5652    4.5702 H         1 UNK         0.0616 
    135 H135       35.3266   26.5109    4.9782 H         1 UNK         0.0616 
    136 H136       35.5115   25.0319    1.5590 H         1 UNK         0.0634 
    137 H137       35.6580   24.8326    3.2849 H         1 UNK         0.0634 
@<TRIPOS>BOND
     1    1    2 1    
     2    1   72 1    
     3    1   73 1    
     4    1   74 1    
     5    2    3 2    
     6    2    4 am   BACKBONE|DICT|INTERRES
     7    4    5 1    
     8    4   75 1    
     9    5    6 1    
    10    5   35 1    
    11    5   76 1    
    12    6    7 1    
    13    6   77 1    
    14    6   78 1    
    15    7    8 1    
    16    8    9 1    
    17    8   79 1    
    18    8   80 1    
    19    9   10 ar   
    20    9   14 ar   
    21   10   11 ar   
    22   10   81 1    
    23   11   12 ar   
    24   11   71 1    
    25   12   13 ar   
    26   12   82 1    
    27   13   14 ar   
    28   13   15 1    
    29   14   83 1    
    30   15   16 1    
    31   15   84 1    
    32   15   85 1    
    33   16   17 1    
    34   17   18 1    
    35   17   86 1    
    36   17   87 1    
    37   18   19 1    
    38   18   37 1    
    39   18   88 1    
    40   19   20 am   BACKBONE|DICT|INTERRES
    41   19   89 1    
    42   20   21 2    
    43   20   22 1    
    44   22   23 1    
    45   22   24 1    
    46   22   90 1    
    47   23   91 1    
    48   23   92 1    
    49   23   93 1    
    50   24   25 am   BACKBONE|DICT|INTERRES
    51   24   94 1    
    52   25   26 2    
    53   25   27 1    
    54   27   28 1    
    55   27   29 1    
    56   27   95 1    
    57   28   96 1    
    58   28   97 1    
    59   28   98 1    
    60   29   30 am   BACKBONE|DICT|INTERRES
    61   29   99 1    
    62   30   31 2    
    63   30   32 1    
    64   32   33 1    
    65   32   34 1    
    66   32  100 1    
    67   33  101 1    
    68   33  102 1    
    69   33  103 1    
    70   34   35 am   BACKBONE|DICT|INTERRES
    71   34  104 1    
    72   35   36 2    
    73   37   38 2    
    74   37   39 am   BACKBONE|DICT|INTERRES
    75   39   40 1    
    76   39  105 1    
    77   40   41 1    
    78   40   42 1    
    79   40  106 1    
    80   41  107 1    
    81   41  108 1    
    82   41  109 1    
    83   42   43 2    
    84   42   44 am   BACKBONE|DICT|INTERRES
    85   44   45 1    
    86   44  110 1    
    87   45   46 1    
    88   45   47 1    
    89   45  111 1    
    90   46  112 1    
    91   46  113 1    
    92   46  114 1    
    93   47   48 2    
    94   47   49 am   BACKBONE|DICT|INTERRES
    95   49   50 1    
    96   49  115 1    
    97   50   51 1    
    98   50   52 1    
    99   50  116 1    
   100   51  117 1    
   101   51  118 1    
   102   51  119 1    
   103   52   53 2    
   104   52   54 am   BACKBONE|DICT|INTERRES
   105   54   55 1    
   106   54  120 1    
   107   55   56 1    
   108   55   57 1    
   109   55  121 1    
   110   56  122 1    
   111   56  123 1    
   112   56  124 1    
   113   57   58 2    
   114   57   59 am   BACKBONE|DICT|INTERRES
   115   59   60 1    
   116   59  125 1    
   117   60   61 1    
   118   60   62 1    
   119   60  126 1    
   120   61  127 1    
   121   61  128 1    
   122   61  129 1    
   123   62   63 2    
   124   62   64 am   BACKBONE|DICT|INTERRES
   125   64   65 1    
   126   64  130 1    
   127   65   66 1    
   128   65   69 1    
   129   65  131 1    
   130   66   67 am   BACKBONE|DICT|INTERRES
   131   66   68 2    
   132   67  132 1    
   133   67  133 1    
   134   69   70 1    
   135   69  134 1    
   136   69  135 1    
   137   70   71 1    
   138   71  136 1    
   139   71  137 1    
@<TRIPOS>SUBSTRUCTURE
     1 UNK         1 GROUP             0       ****    0 ROOT    
