@<TRIPOS>MOLECULE
3R136
137   139    1
SMALL
USER_CHARGES


@<TRIPOS>ATOM
      1 CA         32.0006   28.3318   -3.5260 C.3       0 UNK        -0.1979 
      2 C          30.8137   28.0930   -2.6058 C.2       0 UNK         0.4864 
      3 O          29.8698   28.8822   -2.6028 O.2       0 UNK        -0.5359 
      4 N          30.8350   26.9947   -1.8400 N.am      1 UNK        -0.4318 
      5 CA         29.8501   26.6138   -0.8117 C.3       1 UNK         0.0824 
      6 C6         30.4632   25.6157    0.2106 C.3       12 UNK        -0.0944 
      7 S7         32.0861   26.1594    0.8457 S.3       12 UNK        -0.2672 
      8 C8         32.4596   24.8698    2.0739 C.3       12 UNK         0.0333 
      9 C9         31.8229   25.1666    3.4234 C.ar      12 UNK        -0.0807 
     10 C10        32.1449   26.3442    4.1038 C.ar      12 UNK        -0.0894 
     11 C11        31.5876   26.6218    5.3540 C.ar      12 UNK        -0.0804 
     12 C12        30.6879   25.7152    5.9204 C.ar      12 UNK        -0.0824 
     13 C13        30.3635   24.5289    5.2541 C.ar      12 UNK        -0.0762 
     14 C14        30.9386   24.2564    4.0084 C.ar      12 UNK        -0.0782 
     15 C15        29.3914   23.5408    5.8831 C.3       12 UNK         0.0230 
     16 S16        27.8644   23.3595    4.9069 S.3       12 UNK        -0.2608 
     17 C17        27.2901   25.0889    4.7763 C.3       12 UNK        -0.0989 
     18 CA         27.4973   25.6716    3.3448 C.3       5 UNK         0.0716 
     19 N          26.8443   24.9105    2.2693 N.am      5 UNK        -0.4135 
     20 C          25.5841   24.4527    2.2316 C.2       4 UNK         0.5031 
     21 O          24.7638   24.5415    3.1474 O.2       4 UNK        -0.5229 
     22 CA         25.1783   23.8162    0.8956 C.3       4 UNK         0.0329 
     23 CB         23.9807   22.8463    1.0018 C.3       4 UNK        -0.2001 
     24 N          24.9626   24.8754   -0.0913 N.am      4 UNK        -0.4303 
     25 C          23.9658   25.7746   -0.1489 C.2       3 UNK         0.5044 
     26 O          22.9578   25.7386    0.5577 O.2       3 UNK        -0.5152 
     27 CA         24.1125   26.9335   -1.1586 C.3       3 UNK         0.0319 
     28 CB         23.9609   28.2917   -0.4526 C.3       3 UNK        -0.2001 
     29 N          25.3824   26.9150   -1.8939 N.am      3 UNK        -0.4354 
     30 C          25.6549   26.0970   -2.9190 C.2       2 UNK         0.4964 
     31 O          24.8333   25.3203   -3.4061 O.2       2 UNK        -0.5047 
     32 CA         27.0839   26.1175   -3.4846 C.3       2 UNK         0.0288 
     33 CB         27.1314   26.9382   -4.7839 C.3       2 UNK        -0.2113 
     34 N          28.1247   26.6142   -2.5776 N.am      2 UNK        -0.4145 
     35 C          28.5175   26.0832   -1.4100 C.2       1 UNK         0.5006 
     36 O          27.8853   25.2012   -0.8220 O.2       1 UNK        -0.5103 
     37 C          27.1400   27.1711    3.2649 C.2       5 UNK         0.5055 
     38 O          26.2819   27.5717    2.4750 O.2       5 UNK        -0.5220 
     39 N          27.8420   27.9832    4.0695 N.am      6 UNK        -0.4450 
     40 CA         27.6522   29.4202    4.3334 C.3       6 UNK         0.0367 
     41 CB         26.2590   29.6866    4.9372 C.3       6 UNK        -0.1929 
     42 C          27.9270   30.3862    3.1628 C.2       6 UNK         0.5070 
     43 O          28.2917   31.5329    3.4227 O.2       6 UNK        -0.5237 
     44 N          27.7592   29.9387    1.9115 N.am      7 UNK        -0.4739 
     45 CA         27.9526   30.7399    0.6940 C.3       7 UNK         0.0276 
     46 CB         27.3890   29.9819   -0.5175 C.3       7 UNK        -0.1927 
     47 C          29.4047   31.1869    0.4362 C.2       7 UNK         0.5013 
     48 O          29.6093   32.1554   -0.2975 O.2       7 UNK        -0.5193 
     49 N          30.3748   30.5069    1.0552 N.am      8 UNK        -0.4253 
     50 CA         31.7780   30.8969    1.1015 C.3       8 UNK         0.0242 
     51 CB         32.5783   30.0979    0.0604 C.3       8 UNK        -0.2000 
     52 C          32.2874   30.6284    2.5188 C.2       8 UNK         0.4948 
     53 O          31.8381   29.6751    3.1577 O.2       8 UNK        -0.5275 
     54 N          33.2451   31.4444    2.9732 N.am      9 UNK        -0.4246 
     55 CA         33.8510   31.3765    4.3082 C.3       9 UNK         0.0261 
     56 CB         34.2868   32.7932    4.7267 C.3       9 UNK        -0.1959 
     57 C          35.0158   30.3687    4.3995 C.2       9 UNK         0.5033 
     58 O          35.8822   30.5190    5.2627 O.2       9 UNK        -0.5390 
     59 N          35.0262   29.3552    3.5213 N.am      10 UNK        -0.4215 
     60 CA         36.0793   28.3412    3.3854 C.3       10 UNK         0.0240 
     61 CB         35.7599   27.4461    2.1769 C.3       10 UNK        -0.1982 
     62 C          36.3245   27.4876    4.6446 C.2       10 UNK         0.4970 
     63 O          37.4204   26.9465    4.7955 O.2       10 UNK        -0.4916 
     64 N          35.3198   27.3961    5.5241 N.am      11 UNK        -0.4279 
     65 CA         35.4169   26.7757    6.8502 C.3       11 UNK         0.1003 
     66 C          36.1733   27.6247    7.9161 C.2       11 UNK         0.5709 
     67 N          36.5203   28.8809    7.6557 N.am      11 UNK        -0.7358 
     68 O          36.4681   27.1236    8.9988 O.2       11 UNK        -0.4999 
     69 C69        34.0322   26.2793    7.3421 C.3       12 UNK        -0.0954 
     70 S70        32.8022   27.5927    7.6914 S.3       12 UNK        -0.2268 
     71 C71        31.9754   27.8959    6.0912 C.3       12 UNK         0.0203 
     72 H72        32.7790   27.5812   -3.3897 H         1 UNK         0.0888 
     73 H73        31.6793   28.3051   -4.5668 H         1 UNK         0.0888 
     74 H74        32.4364   29.3108   -3.3289 H         1 UNK         0.0888 
     75 H75        31.6320   26.3769   -1.9013 H         1 UNK         0.3017 
     76 H76        29.5983   27.5201   -0.2583 H         1 UNK         0.0873 
     77 H77        29.7937   25.4787    1.0605 H         1 UNK         0.0745 
     78 H78        30.5913   24.6315   -0.2447 H         1 UNK         0.0745 
     79 H79        32.1454   23.8979    1.6901 H         1 UNK         0.0705 
     80 H80        33.5407   24.8110    2.2043 H         1 UNK         0.0705 
     81 H81        32.8298   27.0475    3.6522 H         1 UNK         0.1334 
     82 H82        30.2569   25.9286    6.8893 H         1 UNK         0.1417 
     83 H83        30.6874   23.3381    3.4948 H         1 UNK         0.1562 
     84 H84        29.1283   23.8436    6.8979 H         1 UNK         0.0748 
     85 H85        29.8749   22.5669    5.9699 H         1 UNK         0.0748 
     86 H86        27.8117   25.6863    5.5245 H         1 UNK         0.0940 
     87 H87        26.2420   25.1302    5.0739 H         1 UNK         0.0940 
     88 H88        28.5632   25.6177    3.1227 H         1 UNK         0.0703 
     89 H89        27.3852   24.8268    1.4185 H         1 UNK         0.3081 
     90 H90        26.0296   23.2337    0.5388 H         1 UNK         0.0719 
     91 H91        23.0940   23.3216    1.4211 H         1 UNK         0.0809 
     92 H92        23.7137   22.4384    0.0271 H         1 UNK         0.0809 
     93 H93        24.2269   22.0053    1.6508 H         1 UNK         0.0809 
     94 H94        25.7563   25.0394   -0.6996 H         1 UNK         0.2990 
     95 H95        23.2959   26.8372   -1.8774 H         1 UNK         0.0690 
     96 H96        24.0709   29.1213   -1.1511 H         1 UNK         0.0788 
     97 H97        24.6940   28.4120    0.3458 H         1 UNK         0.0788 
     98 H98        22.9742   28.3864    0.0026 H         1 UNK         0.0788 
     99 H99        26.1162   27.5185   -1.5547 H         1 UNK         0.2993 
    100 H100       27.3385   25.0832   -3.7256 H         1 UNK         0.0949 
    101 H101       28.1071   26.8640   -5.2649 H         1 UNK         0.0767 
    102 H102       26.3911   26.5818   -5.5019 H         1 UNK         0.0767 
    103 H103       26.9273   27.9939   -4.6001 H         1 UNK         0.0767 
    104 H104       28.6764   27.3990   -2.9133 H         1 UNK         0.3013 
    105 H105       28.5871   27.5635    4.6085 H         1 UNK         0.3121 
    106 H106       28.3891   29.6683    5.0993 H         1 UNK         0.0774 
    107 H107       26.1556   30.7315    5.2330 H         1 UNK         0.0815 
    108 H108       25.4599   29.4722    4.2268 H         1 UNK         0.0815 
    109 H109       26.0890   29.0808    5.8272 H         1 UNK         0.0815 
    110 H110       27.3604   29.0101    1.8086 H         1 UNK         0.2987 
    111 H111       27.3705   31.6566    0.8115 H         1 UNK         0.0949 
    112 H112       27.7994   28.9774   -0.5941 H         1 UNK         0.0806 
    113 H113       26.3057   29.9065   -0.4569 H         1 UNK         0.0806 
    114 H114       27.6193   30.4985   -1.4508 H         1 UNK         0.0806 
    115 H115       30.1228   29.7696    1.7010 H         1 UNK         0.3010 
    116 H116       31.8770   31.9651    0.8952 H         1 UNK         0.0829 
    117 H117       32.2271   30.3126   -0.9486 H         1 UNK         0.0813 
    118 H118       33.6384   30.3517    0.0957 H         1 UNK         0.0813 
    119 H119       32.4914   29.0236    0.2227 H         1 UNK         0.0813 
    120 H120       33.5873   32.1769    2.3666 H         1 UNK         0.3038 
    121 H121       33.0931   31.0423    5.0201 H         1 UNK         0.0769 
    122 H122       33.4533   33.4945    4.6833 H         1 UNK         0.0811 
    123 H123       35.0828   33.1759    4.0867 H         1 UNK         0.0811 
    124 H124       34.6591   32.8047    5.7521 H         1 UNK         0.0811 
    125 H125       34.2540   29.2971    2.8728 H         1 UNK         0.3204 
    126 H126       37.0109   28.8718    3.1781 H         1 UNK         0.0748 
    127 H127       35.6900   28.0277    1.2573 H         1 UNK         0.0771 
    128 H128       36.5399   26.6985    2.0258 H         1 UNK         0.0771 
    129 H129       34.8192   26.9121    2.3070 H         1 UNK         0.0771 
    130 H130       34.4623   27.8878    5.3330 H         1 UNK         0.2980 
    131 H131       36.0281   25.8793    6.7290 H         1 UNK         0.0545 
    132 H132       36.2871   29.3236    6.7725 H         1 UNK         0.3459 
    133 H133       37.0149   29.4059    8.3587 H         1 UNK         0.3459 
    134 H134       34.1581   25.7069    8.2626 H         1 UNK         0.0616 
    135 H135       33.6242   25.5636    6.6287 H         1 UNK         0.0616 
    136 H136       32.6275   28.5151    5.4760 H         1 UNK         0.0634 
    137 H137       31.0783   28.4908    6.2671 H         1 UNK         0.0634 
@<TRIPOS>BOND
     1    1    2 1    
     2    1   72 1    
     3    1   73 1    
     4    1   74 1    
     5    2    3 2    
     6    2    4 am   BACKBONE|DICT|INTERRES
     7    4    5 1    
     8    4   75 1    
     9    5    6 1    
    10    5   35 1    
    11    5   76 1    
    12    6    7 1    
    13    6   77 1    
    14    6   78 1    
    15    7    8 1    
    16    8    9 1    
    17    8   79 1    
    18    8   80 1    
    19    9   10 ar   
    20    9   14 ar   
    21   10   11 ar   
    22   10   81 1    
    23   11   12 ar   
    24   11   71 1    
    25   12   13 ar   
    26   12   82 1    
    27   13   14 ar   
    28   13   15 1    
    29   14   83 1    
    30   15   16 1    
    31   15   84 1    
    32   15   85 1    
    33   16   17 1    
    34   17   18 1    
    35   17   86 1    
    36   17   87 1    
    37   18   19 1    
    38   18   37 1    
    39   18   88 1    
    40   19   20 am   BACKBONE|DICT|INTERRES
    41   19   89 1    
    42   20   21 2    
    43   20   22 1    
    44   22   23 1    
    45   22   24 1    
    46   22   90 1    
    47   23   91 1    
    48   23   92 1    
    49   23   93 1    
    50   24   25 am   BACKBONE|DICT|INTERRES
    51   24   94 1    
    52   25   26 2    
    53   25   27 1    
    54   27   28 1    
    55   27   29 1    
    56   27   95 1    
    57   28   96 1    
    58   28   97 1    
    59   28   98 1    
    60   29   30 am   BACKBONE|DICT|INTERRES
    61   29   99 1    
    62   30   31 2    
    63   30   32 1    
    64   32   33 1    
    65   32   34 1    
    66   32  100 1    
    67   33  101 1    
    68   33  102 1    
    69   33  103 1    
    70   34   35 am   BACKBONE|DICT|INTERRES
    71   34  104 1    
    72   35   36 2    
    73   37   38 2    
    74   37   39 am   BACKBONE|DICT|INTERRES
    75   39   40 1    
    76   39  105 1    
    77   40   41 1    
    78   40   42 1    
    79   40  106 1    
    80   41  107 1    
    81   41  108 1    
    82   41  109 1    
    83   42   43 2    
    84   42   44 am   BACKBONE|DICT|INTERRES
    85   44   45 1    
    86   44  110 1    
    87   45   46 1    
    88   45   47 1    
    89   45  111 1    
    90   46  112 1    
    91   46  113 1    
    92   46  114 1    
    93   47   48 2    
    94   47   49 am   BACKBONE|DICT|INTERRES
    95   49   50 1    
    96   49  115 1    
    97   50   51 1    
    98   50   52 1    
    99   50  116 1    
   100   51  117 1    
   101   51  118 1    
   102   51  119 1    
   103   52   53 2    
   104   52   54 am   BACKBONE|DICT|INTERRES
   105   54   55 1    
   106   54  120 1    
   107   55   56 1    
   108   55   57 1    
   109   55  121 1    
   110   56  122 1    
   111   56  123 1    
   112   56  124 1    
   113   57   58 2    
   114   57   59 am   BACKBONE|DICT|INTERRES
   115   59   60 1    
   116   59  125 1    
   117   60   61 1    
   118   60   62 1    
   119   60  126 1    
   120   61  127 1    
   121   61  128 1    
   122   61  129 1    
   123   62   63 2    
   124   62   64 am   BACKBONE|DICT|INTERRES
   125   64   65 1    
   126   64  130 1    
   127   65   66 1    
   128   65   69 1    
   129   65  131 1    
   130   66   67 am   BACKBONE|DICT|INTERRES
   131   66   68 2    
   132   67  132 1    
   133   67  133 1    
   134   69   70 1    
   135   69  134 1    
   136   69  135 1    
   137   70   71 1    
   138   71  136 1    
   139   71  137 1    
@<TRIPOS>SUBSTRUCTURE
     1 UNK         1 GROUP             0       ****    0 ROOT    
