@<TRIPOS>MOLECULE
3R136
137   139    1
SMALL
USER_CHARGES


@<TRIPOS>ATOM
      1 CA         30.1917   27.0292    2.5523 C.3       0 UNK        -0.1979 
      2 C          29.7675   26.4358    1.2250 C.2       0 UNK         0.4864 
      3 O          28.7325   26.8180    0.6760 O.2       0 UNK        -0.5359 
      4 N          30.5580   25.4827    0.7258 N.am      1 UNK        -0.4318 
      5 CA         30.3769   24.8507   -0.5790 C.3       1 UNK         0.0824 
      6 C6         31.1984   23.5443   -0.6826 C.3       12 UNK        -0.0944 
      7 S7         30.5078   22.2130    0.3538 S.3       12 UNK        -0.2672 
      8 C8         31.6500   22.1564    1.7779 C.3       12 UNK         0.0333 
      9 C9         31.1114   22.8726    3.0134 C.ar      12 UNK        -0.0807 
     10 C10        31.9197   23.7667    3.7248 C.ar      12 UNK        -0.0894 
     11 C11        31.4628   24.3481    4.9136 C.ar      12 UNK        -0.0804 
     12 C12        30.1756   24.0529    5.3759 C.ar      12 UNK        -0.0824 
     13 C13        29.3582   23.1599    4.6761 C.ar      12 UNK        -0.0762 
     14 C14        29.8347   22.5723    3.5006 C.ar      12 UNK        -0.0782 
     15 C15        27.9953   22.7592    5.2265 C.3       12 UNK         0.0230 
     16 S16        26.6237   23.2104    4.1156 S.3       12 UNK        -0.2608 
     17 C17        26.3887   24.9836    4.4826 C.3       12 UNK        -0.0989 
     18 CA         26.7986   25.9121    3.3044 C.3       5 UNK         0.0716 
     19 N          26.1896   25.5752    2.0106 N.am      5 UNK        -0.4135 
     20 C          24.8827   25.4528    1.7423 C.2       4 UNK         0.5031 
     21 O          23.9926   25.6111    2.5800 O.2       4 UNK        -0.5229 
     22 CA         24.5098   25.1129    0.2818 C.3       4 UNK         0.0329 
     23 CB         23.0262   25.4068   -0.0260 C.3       4 UNK        -0.2001 
     24 N          25.3575   25.7471   -0.7400 N.am      4 UNK        -0.4303 
     25 C          25.6582   27.0479   -0.8564 C.2       3 UNK         0.5044 
     26 O          25.3673   27.8873   -0.0042 O.2       3 UNK        -0.5152 
     27 CA         26.3925   27.4863   -2.1410 C.3       3 UNK         0.0319 
     28 CB         26.7562   28.9825   -2.1179 C.3       3 UNK        -0.2001 
     29 N          27.6073   26.7183   -2.4300 N.am      3 UNK        -0.4354 
     30 C          27.6608   25.4706   -2.9166 C.2       2 UNK         0.4964 
     31 O          26.6636   24.7681   -3.0853 O.2       2 UNK        -0.5047 
     32 CA         29.0444   24.9045   -3.2933 C.3       2 UNK         0.0288 
     33 CB         29.1265   24.6807   -4.8128 C.3       2 UNK        -0.2113 
     34 N          30.1584   25.7751   -2.8951 N.am      2 UNK        -0.4145 
     35 C          30.7778   25.8324   -1.7062 C.2       1 UNK         0.5006 
     36 O          31.6929   26.6323   -1.5055 O.2       1 UNK        -0.5103 
     37 C          26.6687   27.4107    3.6732 C.2       5 UNK         0.5055 
     38 O          27.0523   27.7775    4.7853 O.2       5 UNK        -0.5220 
     39 N          26.1578   28.2634    2.7694 N.am      6 UNK        -0.4450 
     40 CA         25.9500   29.6924    3.0260 C.3       6 UNK         0.0367 
     41 CB         24.7976   30.2152    2.1537 C.3       6 UNK        -0.1929 
     42 C          27.2117   30.5398    2.7989 C.2       6 UNK         0.5070 
     43 O          27.3286   31.6066    3.4044 O.2       6 UNK        -0.5237 
     44 N          28.1357   30.0790    1.9425 N.am      7 UNK        -0.4739 
     45 CA         29.3829   30.7767    1.6064 C.3       7 UNK         0.0276 
     46 CB         29.8980   30.2835    0.2412 C.3       7 UNK        -0.1927 
     47 C          30.4430   30.6455    2.7167 C.2       7 UNK         0.5013 
     48 O          31.5066   30.0675    2.4899 O.2       7 UNK        -0.5193 
     49 N          30.1439   31.1944    3.9018 N.am      8 UNK        -0.4253 
     50 CA         30.9724   31.1453    5.1156 C.3       8 UNK         0.0242 
     51 CB         30.2489   31.8850    6.2511 C.3       8 UNK        -0.2000 
     52 C          32.4080   31.6820    4.9521 C.2       8 UNK         0.4948 
     53 O          33.2919   31.2722    5.7047 O.2       8 UNK        -0.5275 
     54 N          32.6337   32.5390    3.9464 N.am      9 UNK        -0.4246 
     55 CA         33.9546   32.9988    3.5116 C.3       9 UNK         0.0261 
     56 CB         33.7829   34.0818    2.4342 C.3       9 UNK        -0.1959 
     57 C          34.8698   31.8685    2.9975 C.2       9 UNK         0.5033 
     58 O          36.0898   32.0038    3.1011 O.2       9 UNK        -0.5390 
     59 N          34.2870   30.7794    2.4704 N.am      10 UNK        -0.4215 
     60 CA         35.0176   29.5707    2.0808 C.3       10 UNK         0.0240 
     61 CB         34.1974   28.7744    1.0514 C.3       10 UNK        -0.1982 
     62 C          35.3607   28.6905    3.2947 C.2       10 UNK         0.4970 
     63 O          36.3955   28.0229    3.2756 O.2       10 UNK        -0.4916 
     64 N          34.4967   28.7012    4.3186 N.am      11 UNK        -0.4279 
     65 CA         34.6997   27.9897    5.5888 C.3       11 UNK         0.1003 
     66 C          35.7682   28.6710    6.4838 C.2       11 UNK         0.5709 
     67 N          35.7459   29.9921    6.6119 N.am      11 UNK        -0.7358 
     68 O          36.6202   27.9985    7.0595 O.2       11 UNK        -0.4999 
     69 C69        33.3787   27.7916    6.3779 C.3       12 UNK        -0.0954 
     70 S70        32.0655   27.0073    5.3904 S.3       12 UNK        -0.2268 
     71 C71        32.3779   25.2515    5.7289 C.3       12 UNK         0.0203 
     72 H72        30.1369   26.2729    3.3323 H         1 UNK         0.0888 
     73 H73        31.2150   27.3984    2.4976 H         1 UNK         0.0888 
     74 H74        29.5467   27.8552    2.8420 H         1 UNK         0.0888 
     75 H75        31.3888   25.2131    1.2305 H         1 UNK         0.3017 
     76 H76        29.3166   24.6112   -0.6654 H         1 UNK         0.0873 
     77 H77        32.2473   23.7192   -0.4368 H         1 UNK         0.0745 
     78 H78        31.1962   23.1684   -1.7076 H         1 UNK         0.0745 
     79 H79        31.8098   21.1099    2.0407 H         1 UNK         0.0705 
     80 H80        32.6287   22.5441    1.4928 H         1 UNK         0.0705 
     81 H81        32.9202   23.9833    3.3757 H         1 UNK         0.1334 
     82 H82        29.8258   24.4957    6.2986 H         1 UNK         0.1417 
     83 H83        29.2137   21.8606    2.9734 H         1 UNK         0.1562 
     84 H84        27.8248   23.1863    6.2160 H         1 UNK         0.0748 
     85 H85        27.9839   21.6769    5.3628 H         1 UNK         0.0748 
     86 H86        26.9616   25.2346    5.3771 H         1 UNK         0.0940 
     87 H87        25.3435   25.1407    4.7532 H         1 UNK         0.0940 
     88 H88        27.8619   25.7415    3.1626 H         1 UNK         0.0703 
     89 H89        26.8410   25.5029    1.2397 H         1 UNK         0.3081 
     90 H90        24.6619   24.0375    0.1784 H         1 UNK         0.0719 
     91 H91        22.7678   25.1213   -1.0457 H         1 UNK         0.0809 
     92 H92        22.7944   26.4657    0.0951 H         1 UNK         0.0809 
     93 H93        22.3665   24.8492    0.6400 H         1 UNK         0.0809 
     94 H94        25.6741   25.1449   -1.4961 H         1 UNK         0.2990 
     95 H95        25.6933   27.3323   -2.9655 H         1 UNK         0.0690 
     96 H96        27.2418   29.2925   -3.0432 H         1 UNK         0.0788 
     97 H97        27.4252   29.2124   -1.2890 H         1 UNK         0.0788 
     98 H98        25.8658   29.6013   -1.9983 H         1 UNK         0.0788 
     99 H99        28.4792   27.1996   -2.2651 H         1 UNK         0.2993 
    100 H100       29.1409   23.9267   -2.8188 H         1 UNK         0.0949 
    101 H101       28.3405   24.0050   -5.1538 H         1 UNK         0.0767 
    102 H102       29.0158   25.6140   -5.3667 H         1 UNK         0.0767 
    103 H103       30.0790   24.2326   -5.0970 H         1 UNK         0.0767 
    104 H104       30.4729   26.4177   -3.6078 H         1 UNK         0.3013 
    105 H105       25.8789   27.9242    1.8509 H         1 UNK         0.3121 
    106 H106       25.6539   29.8201    4.0696 H         1 UNK         0.0774 
    107 H107       24.5391   31.2389    2.4272 H         1 UNK         0.0815 
    108 H108       25.0604   30.2224    1.0954 H         1 UNK         0.0815 
    109 H109       23.8991   29.6096    2.2734 H         1 UNK         0.0815 
    110 H110       27.9812   29.1812    1.5023 H         1 UNK         0.2987 
    111 H111       29.1681   31.8427    1.5020 H         1 UNK         0.0949 
    112 H112       30.0792   29.2091    0.2354 H         1 UNK         0.0806 
    113 H113       29.1912   30.5139   -0.5545 H         1 UNK         0.0806 
    114 H114       30.8384   30.7701   -0.0214 H         1 UNK         0.0806 
    115 H115       29.2206   31.6094    3.9911 H         1 UNK         0.3010 
    116 H116       31.0603   30.0935    5.3958 H         1 UNK         0.0829 
    117 H117       29.2743   31.4411    6.4560 H         1 UNK         0.0813 
    118 H118       30.8247   31.8395    7.1768 H         1 UNK         0.0813 
    119 H119       30.0957   32.9382    6.0126 H         1 UNK         0.0813 
    120 H120       31.8449   32.8274    3.3868 H         1 UNK         0.3038 
    121 H121       34.4477   33.4487    4.3759 H         1 UNK         0.0769 
    122 H122       34.7513   34.4654    2.1096 H         1 UNK         0.0811 
    123 H123       33.2108   34.9302    2.8103 H         1 UNK         0.0811 
    124 H124       33.2730   33.6958    1.5505 H         1 UNK         0.0811 
    125 H125       33.2710   30.7201    2.4324 H         1 UNK         0.3204 
    126 H126       35.9556   29.8662    1.6056 H         1 UNK         0.0748 
    127 H127       34.7620   27.9163    0.6847 H         1 UNK         0.0771 
    128 H128       33.2698   28.3913    1.4771 H         1 UNK         0.0771 
    129 H129       33.9398   29.3866    0.1870 H         1 UNK         0.0771 
    130 H130       33.6792   29.2897    4.2668 H         1 UNK         0.2980 
    131 H131       35.0788   26.9951    5.3457 H         1 UNK         0.0545 
    132 H132       34.9878   30.5279    6.1981 H         1 UNK         0.3459 
    133 H133       36.4353   30.4493    7.1861 H         1 UNK         0.3459 
    134 H134       33.5526   27.1926    7.2737 H         1 UNK         0.0616 
    135 H135       32.9952   28.7514    6.7277 H         1 UNK         0.0616 
    136 H136       32.2360   25.0593    6.7935 H         1 UNK         0.0634 
    137 H137       33.4225   25.0240    5.5109 H         1 UNK         0.0634 
@<TRIPOS>BOND
     1    1    2 1    
     2    1   72 1    
     3    1   73 1    
     4    1   74 1    
     5    2    3 2    
     6    2    4 am   BACKBONE|DICT|INTERRES
     7    4    5 1    
     8    4   75 1    
     9    5    6 1    
    10    5   35 1    
    11    5   76 1    
    12    6    7 1    
    13    6   77 1    
    14    6   78 1    
    15    7    8 1    
    16    8    9 1    
    17    8   79 1    
    18    8   80 1    
    19    9   10 ar   
    20    9   14 ar   
    21   10   11 ar   
    22   10   81 1    
    23   11   12 ar   
    24   11   71 1    
    25   12   13 ar   
    26   12   82 1    
    27   13   14 ar   
    28   13   15 1    
    29   14   83 1    
    30   15   16 1    
    31   15   84 1    
    32   15   85 1    
    33   16   17 1    
    34   17   18 1    
    35   17   86 1    
    36   17   87 1    
    37   18   19 1    
    38   18   37 1    
    39   18   88 1    
    40   19   20 am   BACKBONE|DICT|INTERRES
    41   19   89 1    
    42   20   21 2    
    43   20   22 1    
    44   22   23 1    
    45   22   24 1    
    46   22   90 1    
    47   23   91 1    
    48   23   92 1    
    49   23   93 1    
    50   24   25 am   BACKBONE|DICT|INTERRES
    51   24   94 1    
    52   25   26 2    
    53   25   27 1    
    54   27   28 1    
    55   27   29 1    
    56   27   95 1    
    57   28   96 1    
    58   28   97 1    
    59   28   98 1    
    60   29   30 am   BACKBONE|DICT|INTERRES
    61   29   99 1    
    62   30   31 2    
    63   30   32 1    
    64   32   33 1    
    65   32   34 1    
    66   32  100 1    
    67   33  101 1    
    68   33  102 1    
    69   33  103 1    
    70   34   35 am   BACKBONE|DICT|INTERRES
    71   34  104 1    
    72   35   36 2    
    73   37   38 2    
    74   37   39 am   BACKBONE|DICT|INTERRES
    75   39   40 1    
    76   39  105 1    
    77   40   41 1    
    78   40   42 1    
    79   40  106 1    
    80   41  107 1    
    81   41  108 1    
    82   41  109 1    
    83   42   43 2    
    84   42   44 am   BACKBONE|DICT|INTERRES
    85   44   45 1    
    86   44  110 1    
    87   45   46 1    
    88   45   47 1    
    89   45  111 1    
    90   46  112 1    
    91   46  113 1    
    92   46  114 1    
    93   47   48 2    
    94   47   49 am   BACKBONE|DICT|INTERRES
    95   49   50 1    
    96   49  115 1    
    97   50   51 1    
    98   50   52 1    
    99   50  116 1    
   100   51  117 1    
   101   51  118 1    
   102   51  119 1    
   103   52   53 2    
   104   52   54 am   BACKBONE|DICT|INTERRES
   105   54   55 1    
   106   54  120 1    
   107   55   56 1    
   108   55   57 1    
   109   55  121 1    
   110   56  122 1    
   111   56  123 1    
   112   56  124 1    
   113   57   58 2    
   114   57   59 am   BACKBONE|DICT|INTERRES
   115   59   60 1    
   116   59  125 1    
   117   60   61 1    
   118   60   62 1    
   119   60  126 1    
   120   61  127 1    
   121   61  128 1    
   122   61  129 1    
   123   62   63 2    
   124   62   64 am   BACKBONE|DICT|INTERRES
   125   64   65 1    
   126   64  130 1    
   127   65   66 1    
   128   65   69 1    
   129   65  131 1    
   130   66   67 am   BACKBONE|DICT|INTERRES
   131   66   68 2    
   132   67  132 1    
   133   67  133 1    
   134   69   70 1    
   135   69  134 1    
   136   69  135 1    
   137   70   71 1    
   138   71  136 1    
   139   71  137 1    
@<TRIPOS>SUBSTRUCTURE
     1 UNK         1 GROUP             0       ****    0 ROOT    
