@<TRIPOS>MOLECULE
3R136
137   139    1
SMALL
USER_CHARGES


@<TRIPOS>ATOM
      1 CA         24.5521   18.8605    3.1245 C.3       0 UNK        -0.1979 
      2 C          25.2359   20.2041    2.9204 C.2       0 UNK         0.4864 
      3 O          24.8260   21.1982    3.5228 O.2       0 UNK        -0.5359 
      4 N          26.2742   20.2463    2.0747 N.am      1 UNK        -0.4318 
      5 CA         27.0760   21.4382    1.7918 C.3       1 UNK         0.0824 
      6 C6         27.7770   21.3286    0.4125 C.3       12 UNK        -0.0944 
      7 S7         28.4913   22.9163   -0.1397 S.3       12 UNK        -0.2672 
      8 C8         30.2598   22.4980   -0.1890 C.3       12 UNK         0.0333 
      9 C9         31.1312   23.7317   -0.3702 C.ar      12 UNK        -0.0807 
     10 C10        31.6613   24.3829    0.7471 C.ar      12 UNK        -0.0894 
     11 C11        32.5205   25.4754    0.5925 C.ar      12 UNK        -0.0804 
     12 C12        32.8348   25.9272   -0.6937 C.ar      12 UNK        -0.0824 
     13 C13        32.3096   25.2844   -1.8201 C.ar      12 UNK        -0.0762 
     14 C14        31.4546   24.1899   -1.6510 C.ar      12 UNK        -0.0782 
     15 C15        32.7185   25.7184   -3.2217 C.3       12 UNK         0.0230 
     16 S16        31.4152   26.6607   -4.0735 S.3       12 UNK        -0.2608 
     17 C17        31.7143   28.3531   -3.4583 C.3       12 UNK        -0.0989 
     18 CA         30.3937   29.1586   -3.3091 C.3       5 UNK         0.0716 
     19 N          29.4410   28.5330   -2.3812 N.am      5 UNK        -0.4135 
     20 C          29.6238   28.3467   -1.0663 C.2       4 UNK         0.5031 
     21 O          30.5880   28.7874   -0.4397 O.2       4 UNK        -0.5229 
     22 CA         28.5584   27.5185   -0.3307 C.3       4 UNK         0.0329 
     23 CB         28.0650   26.3205   -1.1744 C.3       4 UNK        -0.2001 
     24 N          29.1274   27.0685    0.9390 N.am      4 UNK        -0.4303 
     25 C          28.4628   26.5060    1.9516 C.2       3 UNK         0.5044 
     26 O          27.2484   26.2833    1.9500 O.2       3 UNK        -0.5152 
     27 CA         29.2846   26.1373    3.1917 C.3       3 UNK         0.0319 
     28 CB         29.3425   27.3057    4.1914 C.3       3 UNK        -0.2001 
     29 N          28.6627   24.9755    3.8118 N.am      3 UNK        -0.4354 
     30 C          29.2494   24.1117    4.6482 C.2       2 UNK         0.4964 
     31 O          30.4092   24.2144    5.0477 O.2       2 UNK        -0.5047 
     32 CA         28.3956   22.9106    5.0917 C.3       2 UNK         0.0288 
     33 CB         27.4946   23.2894    6.2785 C.3       2 UNK        -0.2113 
     34 N          27.5719   22.3996    3.9929 N.am      2 UNK        -0.4145 
     35 C          28.0546   21.7021    2.9560 C.2       1 UNK         0.5006 
     36 O          29.2057   21.2628    2.9081 O.2       1 UNK        -0.5103 
     37 C          30.6267   30.6482   -2.9736 C.2       5 UNK         0.5055 
     38 O          31.7722   31.0887   -2.8568 O.2       5 UNK        -0.5220 
     39 N          29.5158   31.3878   -2.8225 N.am      6 UNK        -0.4450 
     40 CA         29.4367   32.8088   -2.4524 C.3       6 UNK         0.0367 
     41 CB         30.0798   33.7076   -3.5314 C.3       6 UNK        -0.1929 
     42 C          29.9644   33.0996   -1.0318 C.2       6 UNK         0.5070 
     43 O          30.4879   34.1857   -0.7765 O.2       6 UNK        -0.5237 
     44 N          29.7923   32.1321   -0.1261 N.am      7 UNK        -0.4739 
     45 CA         30.1181   32.2118    1.2932 C.3       7 UNK         0.0276 
     46 CB         31.5577   31.7192    1.5209 C.3       7 UNK        -0.1927 
     47 C          29.0947   31.3782    2.0774 C.2       7 UNK         0.5013 
     48 O          28.3031   30.6460    1.4758 O.2       7 UNK        -0.5193 
     49 N          29.1169   31.5189    3.4052 N.am      8 UNK        -0.4253 
     50 CA         28.2104   30.8627    4.3430 C.3       8 UNK         0.0242 
     51 CB         26.9464   31.7256    4.5202 C.3       8 UNK        -0.2000 
     52 C          28.9380   30.6557    5.6776 C.2       8 UNK         0.4948 
     53 O          30.0476   31.1700    5.8531 O.2       8 UNK        -0.5275 
     54 N          28.2931   29.9187    6.5940 N.am      9 UNK        -0.4246 
     55 CA         28.7303   29.6216    7.9642 C.3       9 UNK         0.0261 
     56 CB         28.6498   30.8900    8.8449 C.3       9 UNK        -0.1959 
     57 C          30.1052   28.9285    8.0006 C.2       9 UNK         0.5033 
     58 O          30.1755   27.7221    7.7664 O.2       9 UNK        -0.5390 
     59 N          31.1656   29.6994    8.2751 N.am      10 UNK        -0.4215 
     60 CA         32.5601   29.2517    8.2677 C.3       10 UNK         0.0240 
     61 CB         33.4155   30.2792    9.0282 C.3       10 UNK        -0.1982 
     62 C          33.1309   29.0150    6.8552 C.2       10 UNK         0.4970 
     63 O          34.1860   28.3893    6.7456 O.2       10 UNK        -0.4916 
     64 N          32.4505   29.5181    5.8141 N.am      11 UNK        -0.4279 
     65 CA         32.8512   29.4324    4.4001 C.3       11 UNK         0.1003 
     66 C          34.0622   30.3419    4.0233 C.2       11 UNK         0.5709 
     67 N          34.3795   31.3654    4.8082 N.am      11 UNK        -0.7358 
     68 O          34.7115   30.1427    3.0000 O.2       11 UNK        -0.4999 
     69 C69        32.9902   27.9617    3.9045 C.3       12 UNK        -0.0954 
     70 S70        32.4040   27.7338    2.1956 S.3       12 UNK        -0.2268 
     71 C71        33.1541   26.1255    1.8143 C.3       12 UNK         0.0203 
     72 H72        24.6083   18.5668    4.1723 H         1 UNK         0.0888 
     73 H73        23.5011   18.9287    2.8452 H         1 UNK         0.0888 
     74 H74        25.0115   18.0737    2.5264 H         1 UNK         0.0888 
     75 H75        26.5835   19.3943    1.6284 H         1 UNK         0.3017 
     76 H76        26.3960   22.2918    1.7333 H         1 UNK         0.0873 
     77 H77        28.5375   20.5454    0.4158 H         1 UNK         0.0745 
     78 H78        27.0497   21.0303   -0.3443 H         1 UNK         0.0745 
     79 H79        30.5412   21.9840    0.7308 H         1 UNK         0.0705 
     80 H80        30.4379   21.7902   -1.0001 H         1 UNK         0.0705 
     81 H81        31.4248   24.0182    1.7379 H         1 UNK         0.1334 
     82 H82        33.5065   26.7662   -0.8138 H         1 UNK         0.1417 
     83 H83        31.0567   23.6818   -2.5191 H         1 UNK         0.1562 
     84 H84        32.9457   24.8313   -3.8147 H         1 UNK         0.0748 
     85 H85        33.6392   26.3036   -3.1968 H         1 UNK         0.0748 
     86 H86        32.3871   28.8447   -4.1636 H         1 UNK         0.0940 
     87 H87        32.2476   28.3143   -2.5069 H         1 UNK         0.0940 
     88 H88        29.9062   29.1575   -4.2855 H         1 UNK         0.0703 
     89 H89        28.6205   28.1294   -2.8089 H         1 UNK         0.3081 
     90 H90        27.7184   28.1806   -0.1121 H         1 UNK         0.0719 
     91 H91        28.8944   25.6797   -1.4762 H         1 UNK         0.0809 
     92 H92        27.3532   25.7041   -0.6266 H         1 UNK         0.0809 
     93 H93        27.5517   26.6453   -2.0793 H         1 UNK         0.0809 
     94 H94        30.1157   27.2810    1.0343 H         1 UNK         0.2990 
     95 H95        30.2935   25.8673    2.8798 H         1 UNK         0.0690 
     96 H96        29.9708   27.0653    5.0490 H         1 UNK         0.0788 
     97 H97        28.3504   27.5572    4.5664 H         1 UNK         0.0788 
     98 H98        29.7605   28.1986    3.7255 H         1 UNK         0.0788 
     99 H99        27.7131   24.8097    3.5025 H         1 UNK         0.2993 
    100 H100       29.0751   22.1191    5.4165 H         1 UNK         0.0949 
    101 H101       28.0891   23.6593    7.1152 H         1 UNK         0.0767 
    102 H102       26.7815   24.0714    6.0143 H         1 UNK         0.0767 
    103 H103       26.9306   22.4282    6.6378 H         1 UNK         0.0767 
    104 H104       26.5853   22.6267    4.0018 H         1 UNK         0.3013 
    105 H105       28.6263   30.9209   -2.9352 H         1 UNK         0.3121 
    106 H106       28.3733   33.0516   -2.4244 H         1 UNK         0.0774 
    107 H107       29.8796   34.7609   -3.3316 H         1 UNK         0.0815 
    108 H108       31.1628   33.5871   -3.5683 H         1 UNK         0.0815 
    109 H109       29.6825   33.4866   -4.5219 H         1 UNK         0.0815 
    110 H110       29.3206   31.2769   -0.3914 H         1 UNK         0.2987 
    111 H111       30.0305   33.2484    1.6267 H         1 UNK         0.0949 
    112 H112       32.2669   32.2581    0.8925 H         1 UNK         0.0806 
    113 H113       31.8651   31.8761    2.5543 H         1 UNK         0.0806 
    114 H114       31.6599   30.6560    1.2986 H         1 UNK         0.0806 
    115 H115       29.8368   32.0761    3.8485 H         1 UNK         0.3010 
    116 H116       27.9279   29.8834    3.9526 H         1 UNK         0.0829 
    117 H117       26.4352   31.8784    3.5694 H         1 UNK         0.0813 
    118 H118       26.2308   31.2534    5.1941 H         1 UNK         0.0813 
    119 H119       27.1848   32.7073    4.9318 H         1 UNK         0.0813 
    120 H120       27.4024   29.5172    6.3358 H         1 UNK         0.3038 
    121 H121       28.0177   28.9005    8.3681 H         1 UNK         0.0769 
    122 H122       29.2571   31.7092    8.4586 H         1 UNK         0.0811 
    123 H123       28.9788   30.6835    9.8644 H         1 UNK         0.0811 
    124 H124       27.6234   31.2512    8.9100 H         1 UNK         0.0811 
    125 H125       31.0049   30.6868    8.4154 H         1 UNK         0.3204 
    126 H126       32.6151   28.3000    8.8007 H         1 UNK         0.0748 
    127 H127       33.0709   30.3996   10.0556 H         1 UNK         0.0771 
    128 H128       34.4586   29.9626    9.0747 H         1 UNK         0.0771 
    129 H129       33.3935   31.2586    8.5487 H         1 UNK         0.0771 
    130 H130       31.6076   30.0571    5.9930 H         1 UNK         0.2980 
    131 H131       32.0034   29.8730    3.8761 H         1 UNK         0.0545 
    132 H132       35.1577   31.9544    4.5575 H         1 UNK         0.3459 
    133 H133       33.8517   31.5537    5.6447 H         1 UNK         0.3459 
    134 H134       34.0201   27.6114    3.9948 H         1 UNK         0.0616 
    135 H135       32.3939   27.2911    4.5251 H         1 UNK         0.0616 
    136 H136       34.2240   26.2602    1.6489 H         1 UNK         0.0634 
    137 H137       33.0558   25.4706    2.6819 H         1 UNK         0.0634 
@<TRIPOS>BOND
     1    1    2 1    
     2    1   72 1    
     3    1   73 1    
     4    1   74 1    
     5    2    3 2    
     6    2    4 am   BACKBONE|DICT|INTERRES
     7    4    5 1    
     8    4   75 1    
     9    5    6 1    
    10    5   35 1    
    11    5   76 1    
    12    6    7 1    
    13    6   77 1    
    14    6   78 1    
    15    7    8 1    
    16    8    9 1    
    17    8   79 1    
    18    8   80 1    
    19    9   10 ar   
    20    9   14 ar   
    21   10   11 ar   
    22   10   81 1    
    23   11   12 ar   
    24   11   71 1    
    25   12   13 ar   
    26   12   82 1    
    27   13   14 ar   
    28   13   15 1    
    29   14   83 1    
    30   15   16 1    
    31   15   84 1    
    32   15   85 1    
    33   16   17 1    
    34   17   18 1    
    35   17   86 1    
    36   17   87 1    
    37   18   19 1    
    38   18   37 1    
    39   18   88 1    
    40   19   20 am   BACKBONE|DICT|INTERRES
    41   19   89 1    
    42   20   21 2    
    43   20   22 1    
    44   22   23 1    
    45   22   24 1    
    46   22   90 1    
    47   23   91 1    
    48   23   92 1    
    49   23   93 1    
    50   24   25 am   BACKBONE|DICT|INTERRES
    51   24   94 1    
    52   25   26 2    
    53   25   27 1    
    54   27   28 1    
    55   27   29 1    
    56   27   95 1    
    57   28   96 1    
    58   28   97 1    
    59   28   98 1    
    60   29   30 am   BACKBONE|DICT|INTERRES
    61   29   99 1    
    62   30   31 2    
    63   30   32 1    
    64   32   33 1    
    65   32   34 1    
    66   32  100 1    
    67   33  101 1    
    68   33  102 1    
    69   33  103 1    
    70   34   35 am   BACKBONE|DICT|INTERRES
    71   34  104 1    
    72   35   36 2    
    73   37   38 2    
    74   37   39 am   BACKBONE|DICT|INTERRES
    75   39   40 1    
    76   39  105 1    
    77   40   41 1    
    78   40   42 1    
    79   40  106 1    
    80   41  107 1    
    81   41  108 1    
    82   41  109 1    
    83   42   43 2    
    84   42   44 am   BACKBONE|DICT|INTERRES
    85   44   45 1    
    86   44  110 1    
    87   45   46 1    
    88   45   47 1    
    89   45  111 1    
    90   46  112 1    
    91   46  113 1    
    92   46  114 1    
    93   47   48 2    
    94   47   49 am   BACKBONE|DICT|INTERRES
    95   49   50 1    
    96   49  115 1    
    97   50   51 1    
    98   50   52 1    
    99   50  116 1    
   100   51  117 1    
   101   51  118 1    
   102   51  119 1    
   103   52   53 2    
   104   52   54 am   BACKBONE|DICT|INTERRES
   105   54   55 1    
   106   54  120 1    
   107   55   56 1    
   108   55   57 1    
   109   55  121 1    
   110   56  122 1    
   111   56  123 1    
   112   56  124 1    
   113   57   58 2    
   114   57   59 am   BACKBONE|DICT|INTERRES
   115   59   60 1    
   116   59  125 1    
   117   60   61 1    
   118   60   62 1    
   119   60  126 1    
   120   61  127 1    
   121   61  128 1    
   122   61  129 1    
   123   62   63 2    
   124   62   64 am   BACKBONE|DICT|INTERRES
   125   64   65 1    
   126   64  130 1    
   127   65   66 1    
   128   65   69 1    
   129   65  131 1    
   130   66   67 am   BACKBONE|DICT|INTERRES
   131   66   68 2    
   132   67  132 1    
   133   67  133 1    
   134   69   70 1    
   135   69  134 1    
   136   69  135 1    
   137   70   71 1    
   138   71  136 1    
   139   71  137 1    
@<TRIPOS>SUBSTRUCTURE
     1 UNK         1 GROUP             0       ****    0 ROOT    
