@<TRIPOS>MOLECULE
3R136
137   139    1
SMALL
USER_CHARGES


@<TRIPOS>ATOM
      1 CA         26.6895   23.4079   -0.2737 C.3       0 UNK        -0.1979 
      2 C          27.7291   24.0118    0.6572 C.2       0 UNK         0.4864 
      3 O          27.8517   25.2348    0.7105 O.2       0 UNK        -0.5359 
      4 N          28.4636   23.1646    1.3895 N.am      1 UNK        -0.4318 
      5 CA         29.5910   23.4785    2.2855 C.3       1 UNK         0.0824 
      6 C6         30.0712   22.1654    2.9640 C.3       12 UNK        -0.0944 
      7 S7         31.8135   22.1537    3.4950 S.3       12 UNK        -0.2672 
      8 C8         32.6687   21.5566    1.9939 C.3       12 UNK         0.0333 
      9 C9         32.8914   22.6921    1.0065 C.ar      12 UNK        -0.0807 
     10 C10        33.6689   23.7820    1.3944 C.ar      12 UNK        -0.0894 
     11 C11        33.7915   24.9047    0.5763 C.ar      12 UNK        -0.0804 
     12 C12        33.2172   24.8815   -0.6987 C.ar      12 UNK        -0.0824 
     13 C13        32.4926   23.7634   -1.1364 C.ar      12 UNK        -0.0762 
     14 C14        32.3154   22.6794   -0.2671 C.ar      12 UNK        -0.0782 
     15 C15        31.9190   23.6926   -2.5511 C.3       12 UNK         0.0230 
     16 S16        31.1680   25.2464   -3.1412 S.3       12 UNK        -0.2608 
     17 C17        29.7616   25.4099   -1.9961 C.3       12 UNK        -0.0989 
     18 CA         29.2790   26.8767   -1.8386 C.3       5 UNK         0.0716 
     19 N          27.8404   26.9060   -1.5644 N.am      5 UNK        -0.4135 
     20 C          26.9395   27.6464   -2.2202 C.2       4 UNK         0.5031 
     21 O          27.2247   28.4111   -3.1430 O.2       4 UNK        -0.5229 
     22 CA         25.4594   27.5137   -1.8054 C.3       4 UNK         0.0329 
     23 CB         24.7123   26.6118   -2.8022 C.3       4 UNK        -0.2001 
     24 N          25.2013   27.0239   -0.4450 N.am      4 UNK        -0.4303 
     25 C          25.6265   27.5947    0.6901 C.2       3 UNK         0.5044 
     26 O          26.4109   28.5412    0.7177 O.2       3 UNK        -0.5152 
     27 CA         25.0994   27.0261    2.0162 C.3       3 UNK         0.0319 
     28 CB         23.9552   25.9988    1.8707 C.3       3 UNK        -0.2001 
     29 N          26.2101   26.4351    2.7581 N.am      3 UNK        -0.4354 
     30 C          26.3143   26.4069    4.0940 C.2       2 UNK         0.4964 
     31 O          25.4766   26.9049    4.8477 O.2       2 UNK        -0.5047 
     32 CA         27.5415   25.6953    4.6962 C.3       2 UNK         0.0288 
     33 CB         27.2371   25.0553    6.0644 C.3       2 UNK        -0.2113 
     34 N          28.0554   24.6631    3.7948 N.am      2 UNK        -0.4145 
     35 C          29.3063   24.5983    3.3195 C.2       1 UNK         0.5006 
     36 O          30.1977   25.3899    3.6376 O.2       1 UNK        -0.5103 
     37 C          30.0842   27.6403   -0.7605 C.2       5 UNK         0.5055 
     38 O          31.3024   27.7595   -0.8996 O.2       5 UNK        -0.5220 
     39 N          29.4189   28.1452    0.2907 N.am      6 UNK        -0.4450 
     40 CA         30.0451   28.8749    1.3934 C.3       6 UNK         0.0367 
     41 CB         29.0118   29.0725    2.5114 C.3       6 UNK        -0.1929 
     42 C          30.6048   30.2332    0.9412 C.2       6 UNK         0.5070 
     43 O          29.9710   30.9265    0.1409 O.2       6 UNK        -0.5237 
     44 N          31.7520   30.6253    1.5054 N.am      7 UNK        -0.4739 
     45 CA         32.4096   31.9143    1.2739 C.3       7 UNK         0.0276 
     46 CB         33.9193   31.7481    1.5283 C.3       7 UNK        -0.1927 
     47 C          31.7756   33.0089    2.1533 C.2       7 UNK         0.5013 
     48 O          32.4503   33.5824    3.0116 O.2       7 UNK        -0.5193 
     49 N          30.4661   33.2287    1.9626 N.am      8 UNK        -0.4253 
     50 CA         29.5351   34.0265    2.7749 C.3       8 UNK         0.0242 
     51 CB         29.9546   35.5074    2.8705 C.3       8 UNK        -0.2000 
     52 C          29.2856   33.4043    4.1609 C.2       8 UNK         0.4948 
     53 O          28.1387   33.0963    4.4869 O.2       8 UNK        -0.5275 
     54 N          30.3607   33.1892    4.9263 N.am      9 UNK        -0.4246 
     55 CA         30.3866   32.3368    6.1123 C.3       9 UNK         0.0261 
     56 CB         31.4869   32.8363    7.0621 C.3       9 UNK        -0.1959 
     57 C          30.6658   30.8887    5.6808 C.2       9 UNK         0.5033 
     58 O          31.3534   30.6764    4.6781 O.2       9 UNK        -0.5390 
     59 N          30.1431   29.9208    6.4460 N.am      10 UNK        -0.4215 
     60 CA         30.3215   28.4825    6.2153 C.3       10 UNK         0.0240 
     61 CB         29.5277   27.6947    7.2700 C.3       10 UNK        -0.1982 
     62 C          31.8016   28.0663    6.2324 C.2       10 UNK         0.4970 
     63 O          32.5507   28.5296    7.0967 O.2       10 UNK        -0.4916 
     64 N          32.1861   27.2049    5.2848 N.am      11 UNK        -0.4279 
     65 CA         33.5532   26.6893    5.1482 C.3       11 UNK         0.1003 
     66 C          33.9626   25.7634    6.3285 C.2       11 UNK         0.5709 
     67 N          35.2438   25.7290    6.6703 N.am      11 UNK        -0.7358 
     68 O          33.1443   25.0524    6.9098 O.2       11 UNK        -0.4999 
     69 C69        33.7372   25.9609    3.7972 C.3       12 UNK        -0.0954 
     70 S70        33.5782   27.0532    2.3408 S.3       12 UNK        -0.2268 
     71 C71        34.5356   26.1359    1.0814 C.3       12 UNK         0.0203 
     72 H72        26.7868   22.3247   -0.3442 H         1 UNK         0.0888 
     73 H73        25.6862   23.6357    0.0818 H         1 UNK         0.0888 
     74 H74        26.7974   23.8201   -1.2765 H         1 UNK         0.0888 
     75 H75        28.2731   22.1775    1.2916 H         1 UNK         0.3017 
     76 H76        30.3868   23.8550    1.6405 H         1 UNK         0.0873 
     77 H77        29.4482   21.9278    3.8286 H         1 UNK         0.0745 
     78 H78        29.9451   21.3195    2.2862 H         1 UNK         0.0745 
     79 H79        33.6376   21.1464    2.2822 H         1 UNK         0.0705 
     80 H80        32.1103   20.7361    1.5413 H         1 UNK         0.0705 
     81 H81        34.1375   23.7655    2.3663 H         1 UNK         0.1334 
     82 H82        33.3305   25.7381   -1.3491 H         1 UNK         0.1417 
     83 H83        31.7343   21.8234   -0.5827 H         1 UNK         0.1562 
     84 H84        31.1709   22.9015   -2.6242 H         1 UNK         0.0748 
     85 H85        32.7240   23.4173   -3.2334 H         1 UNK         0.0748 
     86 H86        30.0115   24.9736   -1.0273 H         1 UNK         0.0940 
     87 H87        28.9634   24.7875   -2.4039 H         1 UNK         0.0940 
     88 H88        29.4675   27.3984   -2.7791 H         1 UNK         0.0703 
     89 H89        27.5432   26.3314   -0.7798 H         1 UNK         0.3081 
     90 H90        25.0285   28.5151   -1.8674 H         1 UNK         0.0719 
     91 H91        24.8498   26.9609   -3.8268 H         1 UNK         0.0809 
     92 H92        25.0689   25.5819   -2.7589 H         1 UNK         0.0809 
     93 H93        23.6395   26.6060   -2.6082 H         1 UNK         0.0809 
     94 H94        24.5681   26.2418   -0.3669 H         1 UNK         0.2990 
     95 H95        24.7138   27.8843    2.5707 H         1 UNK         0.0690 
     96 H96        23.1199   26.4109    1.3027 H         1 UNK         0.0788 
     97 H97        23.5609   25.7174    2.8474 H         1 UNK         0.0788 
     98 H98        24.2830   25.0840    1.3777 H         1 UNK         0.0788 
     99 H99        26.9588   26.0511    2.1853 H         1 UNK         0.2993 
    100 H100       28.2918   26.4726    4.8449 H         1 UNK         0.0949 
    101 H101       28.1213   24.5700    6.4783 H         1 UNK         0.0767 
    102 H102       26.9132   25.8039    6.7886 H         1 UNK         0.0767 
    103 H103       26.4475   24.3066    5.9909 H         1 UNK         0.0767 
    104 H104       27.3833   23.9857    3.4625 H         1 UNK         0.3013 
    105 H105       28.4069   28.0891    0.3094 H         1 UNK         0.3121 
    106 H106       30.8619   28.2621    1.7798 H         1 UNK         0.0774 
    107 H107       29.4534   29.5798    3.3647 H         1 UNK         0.0815 
    108 H108       28.1746   29.6887    2.1837 H         1 UNK         0.0815 
    109 H109       28.6195   28.1192    2.8625 H         1 UNK         0.0815 
    110 H110       32.1552   30.0469    2.2308 H         1 UNK         0.2987 
    111 H111       32.2748   32.2099    0.2309 H         1 UNK         0.0949 
    112 H112       34.4517   32.6826    1.3463 H         1 UNK         0.0806 
    113 H113       34.1241   31.4496    2.5575 H         1 UNK         0.0806 
    114 H114       34.3518   30.9953    0.8690 H         1 UNK         0.0806 
    115 H115       30.0266   32.6514    1.2514 H         1 UNK         0.3010 
    116 H116       28.5835   33.9952    2.2416 H         1 UNK         0.0829 
    117 H117       30.8856   35.6417    3.4215 H         1 UNK         0.0813 
    118 H118       30.0857   35.9456    1.8811 H         1 UNK         0.0813 
    119 H119       29.1908   36.0916    3.3850 H         1 UNK         0.0813 
    120 H120       31.2628   33.3912    4.5022 H         1 UNK         0.3038 
    121 H121       29.4235   32.3850    6.6253 H         1 UNK         0.0769 
    122 H122       32.4718   32.7938    6.5945 H         1 UNK         0.0811 
    123 H123       31.5293   32.2287    7.9669 H         1 UNK         0.0811 
    124 H124       31.3067   33.8663    7.3705 H         1 UNK         0.0811 
    125 H125       29.6235   30.1828    7.2710 H         1 UNK         0.3204 
    126 H126       29.9103   28.2511    5.2322 H         1 UNK         0.0748 
    127 H127       29.6462   26.6201    7.1238 H         1 UNK         0.0771 
    128 H128       29.8658   27.9224    8.2818 H         1 UNK         0.0771 
    129 H129       28.4613   27.9143    7.2128 H         1 UNK         0.0771 
    130 H130       31.5042   26.8100    4.6474 H         1 UNK         0.2980 
    131 H131       34.2248   27.5503    5.1609 H         1 UNK         0.0545 
    132 H132       35.5326   25.1251    7.4239 H         1 UNK         0.3459 
    133 H133       35.9268   26.2987    6.1957 H         1 UNK         0.3459 
    134 H134       33.0007   25.1601    3.7129 H         1 UNK         0.0616 
    135 H135       34.7231   25.4943    3.7589 H         1 UNK         0.0616 
    136 H136       34.7457   26.8130    0.2522 H         1 UNK         0.0634 
    137 H137       35.5041   25.8453    1.4904 H         1 UNK         0.0634 
@<TRIPOS>BOND
     1    1    2 1    
     2    1   72 1    
     3    1   73 1    
     4    1   74 1    
     5    2    3 2    
     6    2    4 am   BACKBONE|DICT|INTERRES
     7    4    5 1    
     8    4   75 1    
     9    5    6 1    
    10    5   35 1    
    11    5   76 1    
    12    6    7 1    
    13    6   77 1    
    14    6   78 1    
    15    7    8 1    
    16    8    9 1    
    17    8   79 1    
    18    8   80 1    
    19    9   10 ar   
    20    9   14 ar   
    21   10   11 ar   
    22   10   81 1    
    23   11   12 ar   
    24   11   71 1    
    25   12   13 ar   
    26   12   82 1    
    27   13   14 ar   
    28   13   15 1    
    29   14   83 1    
    30   15   16 1    
    31   15   84 1    
    32   15   85 1    
    33   16   17 1    
    34   17   18 1    
    35   17   86 1    
    36   17   87 1    
    37   18   19 1    
    38   18   37 1    
    39   18   88 1    
    40   19   20 am   BACKBONE|DICT|INTERRES
    41   19   89 1    
    42   20   21 2    
    43   20   22 1    
    44   22   23 1    
    45   22   24 1    
    46   22   90 1    
    47   23   91 1    
    48   23   92 1    
    49   23   93 1    
    50   24   25 am   BACKBONE|DICT|INTERRES
    51   24   94 1    
    52   25   26 2    
    53   25   27 1    
    54   27   28 1    
    55   27   29 1    
    56   27   95 1    
    57   28   96 1    
    58   28   97 1    
    59   28   98 1    
    60   29   30 am   BACKBONE|DICT|INTERRES
    61   29   99 1    
    62   30   31 2    
    63   30   32 1    
    64   32   33 1    
    65   32   34 1    
    66   32  100 1    
    67   33  101 1    
    68   33  102 1    
    69   33  103 1    
    70   34   35 am   BACKBONE|DICT|INTERRES
    71   34  104 1    
    72   35   36 2    
    73   37   38 2    
    74   37   39 am   BACKBONE|DICT|INTERRES
    75   39   40 1    
    76   39  105 1    
    77   40   41 1    
    78   40   42 1    
    79   40  106 1    
    80   41  107 1    
    81   41  108 1    
    82   41  109 1    
    83   42   43 2    
    84   42   44 am   BACKBONE|DICT|INTERRES
    85   44   45 1    
    86   44  110 1    
    87   45   46 1    
    88   45   47 1    
    89   45  111 1    
    90   46  112 1    
    91   46  113 1    
    92   46  114 1    
    93   47   48 2    
    94   47   49 am   BACKBONE|DICT|INTERRES
    95   49   50 1    
    96   49  115 1    
    97   50   51 1    
    98   50   52 1    
    99   50  116 1    
   100   51  117 1    
   101   51  118 1    
   102   51  119 1    
   103   52   53 2    
   104   52   54 am   BACKBONE|DICT|INTERRES
   105   54   55 1    
   106   54  120 1    
   107   55   56 1    
   108   55   57 1    
   109   55  121 1    
   110   56  122 1    
   111   56  123 1    
   112   56  124 1    
   113   57   58 2    
   114   57   59 am   BACKBONE|DICT|INTERRES
   115   59   60 1    
   116   59  125 1    
   117   60   61 1    
   118   60   62 1    
   119   60  126 1    
   120   61  127 1    
   121   61  128 1    
   122   61  129 1    
   123   62   63 2    
   124   62   64 am   BACKBONE|DICT|INTERRES
   125   64   65 1    
   126   64  130 1    
   127   65   66 1    
   128   65   69 1    
   129   65  131 1    
   130   66   67 am   BACKBONE|DICT|INTERRES
   131   66   68 2    
   132   67  132 1    
   133   67  133 1    
   134   69   70 1    
   135   69  134 1    
   136   69  135 1    
   137   70   71 1    
   138   71  136 1    
   139   71  137 1    
@<TRIPOS>SUBSTRUCTURE
     1 UNK         1 GROUP             0       ****    0 ROOT    
