@<TRIPOS>MOLECULE
3R136
137   139    1
SMALL
USER_CHARGES


@<TRIPOS>ATOM
      1 CA         27.3116   21.7466   -1.5168 C.3       0 UNK        -0.1979 
      2 C          27.6668   22.7605   -0.4411 C.2       0 UNK         0.4864 
      3 O          27.7364   23.9558   -0.7301 O.2       0 UNK        -0.5359 
      4 N          27.8749   22.2985    0.7997 N.am      1 UNK        -0.4318 
      5 CA         28.2780   23.0685    1.9882 C.3       1 UNK         0.0824 
      6 C6         28.7908   22.1264    3.1115 C.3       12 UNK        -0.0944 
      7 S7         30.2045   21.0905    2.6004 S.3       12 UNK        -0.2672 
      8 C8         31.6347   21.9580    3.3455 C.3       12 UNK         0.0333 
      9 C9         32.2495   23.0871    2.5111 C.ar      12 UNK        -0.0807 
     10 C10        33.1371   23.9724    3.1350 C.ar      12 UNK        -0.0894 
     11 C11        33.7831   24.9783    2.4071 C.ar      12 UNK        -0.0804 
     12 C12        33.5368   25.0972    1.0375 C.ar      12 UNK        -0.0824 
     13 C13        32.6369   24.2384    0.4016 C.ar      12 UNK        -0.0762 
     14 C14        32.0044   23.2331    1.1391 C.ar      12 UNK        -0.0782 
     15 C15        32.3551   24.3841   -1.0878 C.3       12 UNK         0.0230 
     16 S16        31.6975   26.0274   -1.5207 S.3       12 UNK        -0.2608 
     17 C17        30.1904   26.1258   -0.4995 C.3       12 UNK        -0.0989 
     18 CA         30.1418   27.4497    0.3156 C.3       5 UNK         0.0716 
     19 N          29.1011   28.3361   -0.1833 N.am      5 UNK        -0.4135 
     20 C          29.1815   29.1776   -1.2172 C.2       4 UNK         0.5031 
     21 O          30.2141   29.4046   -1.8493 O.2       4 UNK        -0.5229 
     22 CA         27.8515   29.8497   -1.6166 C.3       4 UNK         0.0329 
     23 CB         27.9234   30.5843   -2.9722 C.3       4 UNK        -0.2001 
     24 N          26.7330   28.8933   -1.5892 N.am      4 UNK        -0.4303 
     25 C          26.6221   27.7596   -2.3001 C.2       3 UNK         0.5044 
     26 O          27.4176   27.4076   -3.1725 O.2       3 UNK        -0.5152 
     27 CA         25.4415   26.8451   -1.9275 C.3       3 UNK         0.0319 
     28 CB         25.1926   25.7466   -2.9783 C.3       3 UNK        -0.2001 
     29 N          25.6562   26.2034   -0.6280 N.am      3 UNK        -0.4354 
     30 C          25.4717   26.7897    0.5653 C.2       2 UNK         0.4964 
     31 O          25.1454   27.9701    0.6916 O.2       2 UNK        -0.5047 
     32 CA         25.6690   25.9306    1.8234 C.3       2 UNK         0.0288 
     33 CB         24.3141   25.3306    2.2539 C.3       2 UNK        -0.2113 
     34 N          26.6718   24.8873    1.6013 N.am      2 UNK        -0.4145 
     35 C          27.1730   24.0312    2.4970 C.2       1 UNK         0.5006 
     36 O          26.8052   23.9834    3.6725 O.2       1 UNK        -0.5103 
     37 C          29.8449   27.2295    1.8084 C.2       5 UNK         0.5055 
     38 O          28.7155   27.4732    2.2471 O.2       5 UNK        -0.5220 
     39 N          30.8622   26.7974    2.5653 N.am      6 UNK        -0.4450 
     40 CA         30.8623   26.6587    4.0272 C.3       6 UNK         0.0367 
     41 CB         29.9507   25.4988    4.4705 C.3       6 UNK        -0.1929 
     42 C          30.5544   28.0039    4.7063 C.2       6 UNK         0.5070 
     43 O          31.2252   28.9906    4.3996 O.2       6 UNK        -0.5237 
     44 N          29.5351   28.0479    5.5745 N.am      7 UNK        -0.4739 
     45 CA         29.0884   29.2450    6.2935 C.3       7 UNK         0.0276 
     46 CB         27.9296   28.8719    7.2310 C.3       7 UNK        -0.1927 
     47 C          28.6848   30.4157    5.3790 C.2       7 UNK         0.5013 
     48 O          28.8916   31.5674    5.7597 O.2       7 UNK        -0.5193 
     49 N          28.1733   30.1118    4.1763 N.am      8 UNK        -0.4253 
     50 CA         27.8236   31.1070    3.1581 C.3       8 UNK         0.0242 
     51 CB         26.8739   30.4756    2.1291 C.3       8 UNK        -0.2000 
     52 C          29.0482   31.7399    2.4680 C.2       8 UNK         0.4948 
     53 O          28.9111   32.8222    1.8977 O.2       8 UNK        -0.5275 
     54 N          30.2134   31.0805    2.5407 N.am      9 UNK        -0.4246 
     55 CA         31.5040   31.5969    2.0713 C.3       9 UNK         0.0261 
     56 CB         32.1928   30.5107    1.2296 C.3       9 UNK        -0.1959 
     57 C          32.4145   32.0357    3.2348 C.2       9 UNK         0.5033 
     58 O          33.5213   32.5113    2.9774 O.2       9 UNK        -0.5390 
     59 N          31.9482   31.8582    4.4808 N.am      10 UNK        -0.4215 
     60 CA         32.6587   32.0590    5.7471 C.3       10 UNK         0.0240 
     61 CB         32.9616   33.5554    5.9780 C.3       10 UNK        -0.1982 
     62 C          33.9008   31.1546    5.8981 C.2       10 UNK         0.4970 
     63 O          34.9075   31.5971    6.4558 O.2       10 UNK        -0.4916 
     64 N          33.8059   29.9081    5.4164 N.am      11 UNK        -0.4279 
     65 CA         34.8421   28.8716    5.5381 C.3       11 UNK         0.1003 
     66 C          34.3641   27.6713    6.4010 C.2       11 UNK         0.5709 
     67 N          35.2692   26.7718    6.7635 N.am      11 UNK        -0.7358 
     68 O          33.1922   27.5407    6.7499 O.2       11 UNK        -0.4999 
     69 C69        35.4056   28.4512    4.1509 C.3       12 UNK        -0.0954 
     70 S70        34.1982   27.6498    3.0410 S.3       12 UNK        -0.2268 
     71 C71        34.7659   25.9197    3.0906 C.3       12 UNK         0.0203 
     72 H72        28.0495   21.7795   -2.3179 H         1 UNK         0.0888 
     73 H73        27.2797   20.7299   -1.1255 H         1 UNK         0.0888 
     74 H74        26.3358   21.9788   -1.9425 H         1 UNK         0.0888 
     75 H75        27.7849   21.3055    0.9616 H         1 UNK         0.3017 
     76 H76        29.1130   23.7073    1.6960 H         1 UNK         0.0873 
     77 H77        29.0656   22.6826    4.0075 H         1 UNK         0.0745 
     78 H78        27.9895   21.4550    3.4261 H         1 UNK         0.0745 
     79 H79        31.3568   22.3305    4.3324 H         1 UNK         0.0705 
     80 H80        32.4151   21.2152    3.5154 H         1 UNK         0.0705 
     81 H81        33.3396   23.8658    4.1923 H         1 UNK         0.1334 
     82 H82        34.0379   25.8679    0.4669 H         1 UNK         0.1417 
     83 H83        31.3326   22.5569    0.6301 H         1 UNK         0.1562 
     84 H84        31.6489   23.6254   -1.4294 H         1 UNK         0.0748 
     85 H85        33.2792   24.2160   -1.6423 H         1 UNK         0.0748 
     86 H86        30.1262   25.2451    0.1399 H         1 UNK         0.0940 
     87 H87        29.3334   26.0414   -1.1707 H         1 UNK         0.0940 
     88 H88        31.0982   27.9718    0.2590 H         1 UNK         0.0703 
     89 H89        28.2342   28.2558    0.3316 H         1 UNK         0.3081 
     90 H90        27.6432   30.5974   -0.8504 H         1 UNK         0.0719 
     91 H91        28.1888   29.9100   -3.7869 H         1 UNK         0.0809 
     92 H92        26.9714   31.0531   -3.2206 H         1 UNK         0.0809 
     93 H93        28.6762   31.3732   -2.9473 H         1 UNK         0.0809 
     94 H94        26.0403   29.0383   -0.8612 H         1 UNK         0.2990 
     95 H95        24.5437   27.4652   -1.8760 H         1 UNK         0.0690 
     96 H96        24.3082   25.1579   -2.7343 H         1 UNK         0.0788 
     97 H97        26.0391   25.0624   -3.0563 H         1 UNK         0.0788 
     98 H98        25.0301   26.1802   -3.9660 H         1 UNK         0.0788 
     99 H99        25.9719   25.2433   -0.6682 H         1 UNK         0.2993 
    100 H100       26.0378   26.5878    2.6139 H         1 UNK         0.0949 
    101 H101       24.3745   24.8482    3.2290 H         1 UNK         0.0767 
    102 H102       23.5505   26.1059    2.3338 H         1 UNK         0.0767 
    103 H103       23.9561   24.5919    1.5358 H         1 UNK         0.0767 
    104 H104       27.0681   24.8258    0.6648 H         1 UNK         0.3013 
    105 H105       31.7595   26.6384    2.1259 H         1 UNK         0.3121 
    106 H106       31.8794   26.4020    4.3224 H         1 UNK         0.0774 
    107 H107       30.0521   25.2989    5.5379 H         1 UNK         0.0815 
    108 H108       28.8990   25.6941    4.2620 H         1 UNK         0.0815 
    109 H109       30.2312   24.5879    3.9487 H         1 UNK         0.0815 
    110 H110       29.0247   27.1951    5.7526 H         1 UNK         0.2987 
    111 H111       29.9271   29.5876    6.9037 H         1 UNK         0.0949 
    112 H112       27.0708   28.4872    6.6793 H         1 UNK         0.0806 
    113 H113       28.2317   28.1148    7.9549 H         1 UNK         0.0806 
    114 H114       27.5905   29.7406    7.7975 H         1 UNK         0.0806 
    115 H115       28.0760   29.1370    3.9201 H         1 UNK         0.3010 
    116 H116       27.2840   31.9183    3.6522 H         1 UNK         0.0829 
    117 H117       27.3393   29.6431    1.6061 H         1 UNK         0.0813 
    118 H118       25.9659   30.1024    2.6032 H         1 UNK         0.0813 
    119 H119       26.5674   31.2058    1.3790 H         1 UNK         0.0813 
    120 H120       30.2519   30.2029    3.0490 H         1 UNK         0.3038 
    121 H121       31.3583   32.4736    1.4371 H         1 UNK         0.0769 
    122 H122       32.3135   29.5847    1.7914 H         1 UNK         0.0811 
    123 H123       33.1849   30.8271    0.9052 H         1 UNK         0.0811 
    124 H124       31.6198   30.2930    0.3299 H         1 UNK         0.0811 
    125 H125       31.0268   31.4537    4.5716 H         1 UNK         0.3204 
    126 H126       31.9662   31.7428    6.5288 H         1 UNK         0.0748 
    127 H127       32.0602   34.1609    5.8833 H         1 UNK         0.0771 
    128 H128       33.3597   33.7246    6.9792 H         1 UNK         0.0771 
    129 H129       33.6970   33.9346    5.2678 H         1 UNK         0.0771 
    130 H130       32.9260   29.5943    5.0131 H         1 UNK         0.2980 
    131 H131       35.6828   29.2871    6.0959 H         1 UNK         0.0545 
    132 H132       34.9784   25.9894    7.3281 H         1 UNK         0.3459 
    133 H133       36.2371   26.8662    6.4996 H         1 UNK         0.3459 
    134 H134       36.2725   27.8002    4.2740 H         1 UNK         0.0616 
    135 H135       35.7834   29.3358    3.6361 H         1 UNK         0.0616 
    136 H136       35.7376   25.8465    2.6004 H         1 UNK         0.0634 
    137 H137       34.9172   25.6215    4.1286 H         1 UNK         0.0634 
@<TRIPOS>BOND
     1    1    2 1    
     2    1   72 1    
     3    1   73 1    
     4    1   74 1    
     5    2    3 2    
     6    2    4 am   BACKBONE|DICT|INTERRES
     7    4    5 1    
     8    4   75 1    
     9    5    6 1    
    10    5   35 1    
    11    5   76 1    
    12    6    7 1    
    13    6   77 1    
    14    6   78 1    
    15    7    8 1    
    16    8    9 1    
    17    8   79 1    
    18    8   80 1    
    19    9   10 ar   
    20    9   14 ar   
    21   10   11 ar   
    22   10   81 1    
    23   11   12 ar   
    24   11   71 1    
    25   12   13 ar   
    26   12   82 1    
    27   13   14 ar   
    28   13   15 1    
    29   14   83 1    
    30   15   16 1    
    31   15   84 1    
    32   15   85 1    
    33   16   17 1    
    34   17   18 1    
    35   17   86 1    
    36   17   87 1    
    37   18   19 1    
    38   18   37 1    
    39   18   88 1    
    40   19   20 am   BACKBONE|DICT|INTERRES
    41   19   89 1    
    42   20   21 2    
    43   20   22 1    
    44   22   23 1    
    45   22   24 1    
    46   22   90 1    
    47   23   91 1    
    48   23   92 1    
    49   23   93 1    
    50   24   25 am   BACKBONE|DICT|INTERRES
    51   24   94 1    
    52   25   26 2    
    53   25   27 1    
    54   27   28 1    
    55   27   29 1    
    56   27   95 1    
    57   28   96 1    
    58   28   97 1    
    59   28   98 1    
    60   29   30 am   BACKBONE|DICT|INTERRES
    61   29   99 1    
    62   30   31 2    
    63   30   32 1    
    64   32   33 1    
    65   32   34 1    
    66   32  100 1    
    67   33  101 1    
    68   33  102 1    
    69   33  103 1    
    70   34   35 am   BACKBONE|DICT|INTERRES
    71   34  104 1    
    72   35   36 2    
    73   37   38 2    
    74   37   39 am   BACKBONE|DICT|INTERRES
    75   39   40 1    
    76   39  105 1    
    77   40   41 1    
    78   40   42 1    
    79   40  106 1    
    80   41  107 1    
    81   41  108 1    
    82   41  109 1    
    83   42   43 2    
    84   42   44 am   BACKBONE|DICT|INTERRES
    85   44   45 1    
    86   44  110 1    
    87   45   46 1    
    88   45   47 1    
    89   45  111 1    
    90   46  112 1    
    91   46  113 1    
    92   46  114 1    
    93   47   48 2    
    94   47   49 am   BACKBONE|DICT|INTERRES
    95   49   50 1    
    96   49  115 1    
    97   50   51 1    
    98   50   52 1    
    99   50  116 1    
   100   51  117 1    
   101   51  118 1    
   102   51  119 1    
   103   52   53 2    
   104   52   54 am   BACKBONE|DICT|INTERRES
   105   54   55 1    
   106   54  120 1    
   107   55   56 1    
   108   55   57 1    
   109   55  121 1    
   110   56  122 1    
   111   56  123 1    
   112   56  124 1    
   113   57   58 2    
   114   57   59 am   BACKBONE|DICT|INTERRES
   115   59   60 1    
   116   59  125 1    
   117   60   61 1    
   118   60   62 1    
   119   60  126 1    
   120   61  127 1    
   121   61  128 1    
   122   61  129 1    
   123   62   63 2    
   124   62   64 am   BACKBONE|DICT|INTERRES
   125   64   65 1    
   126   64  130 1    
   127   65   66 1    
   128   65   69 1    
   129   65  131 1    
   130   66   67 am   BACKBONE|DICT|INTERRES
   131   66   68 2    
   132   67  132 1    
   133   67  133 1    
   134   69   70 1    
   135   69  134 1    
   136   69  135 1    
   137   70   71 1    
   138   71  136 1    
   139   71  137 1    
@<TRIPOS>SUBSTRUCTURE
     1 UNK         1 GROUP             0       ****    0 ROOT    
