@<TRIPOS>MOLECULE
3R136
137   139    1
SMALL
USER_CHARGES


@<TRIPOS>ATOM
      1 CA         28.2558   21.4422   -0.5055 C.3       0 UNK        -0.1979 
      2 C          28.1700   22.8262   -1.1283 C.2       0 UNK         0.4864 
      3 O          27.3215   23.0587   -1.9912 O.2       0 UNK        -0.5359 
      4 N          29.0420   23.7491   -0.6992 N.am      1 UNK        -0.4318 
      5 CA         29.1037   25.1391   -1.1706 C.3       1 UNK         0.0824 
      6 C6         30.3078   25.9057   -0.5761 C.3       12 UNK        -0.0944 
      7 S7         31.8836   25.1144   -1.0423 S.3       12 UNK        -0.2672 
      8 C8         33.0072   25.6842    0.2760 C.3       12 UNK         0.0333 
      9 C9         32.6378   25.2048    1.6781 C.ar      12 UNK        -0.0807 
     10 C10        32.8305   26.0648    2.7637 C.ar      12 UNK        -0.0894 
     11 C11        32.5505   25.6464    4.0666 C.ar      12 UNK        -0.0804 
     12 C12        32.0492   24.3591    4.2805 C.ar      12 UNK        -0.0824 
     13 C13        31.8516   23.4843    3.2065 C.ar      12 UNK        -0.0762 
     14 C14        32.1602   23.9084    1.9103 C.ar      12 UNK        -0.0782 
     15 C15        31.3400   22.0689    3.4522 C.3       12 UNK         0.0230 
     16 S16        29.6096   21.8398    2.9224 S.3       12 UNK        -0.2608 
     17 C17        28.7443   23.0877    3.9306 C.3       12 UNK        -0.0989 
     18 CA         28.2984   24.2895    3.0457 C.3       5 UNK         0.0716 
     19 N          26.9440   24.1677    2.4950 N.am      5 UNK        -0.4135 
     20 C          25.7968   24.1556    3.1903 C.2       4 UNK         0.5031 
     21 O          25.7366   24.0178    4.4127 O.2       4 UNK        -0.5229 
     22 CA         24.4851   24.3700    2.4171 C.3       4 UNK         0.0329 
     23 CB         23.8775   25.7399    2.7705 C.3       4 UNK        -0.2001 
     24 N          24.6408   24.2951    0.9610 N.am      4 UNK        -0.4303 
     25 C          23.8250   23.6171    0.1402 C.2       3 UNK         0.5044 
     26 O          22.9075   22.8971    0.5384 O.2       3 UNK        -0.5152 
     27 CA         24.0633   23.7505   -1.3804 C.3       3 UNK         0.0319 
     28 CB         22.7461   23.7783   -2.1852 C.3       3 UNK        -0.2001 
     29 N          24.9379   24.8700   -1.7549 N.am      3 UNK        -0.4354 
     30 C          24.7122   26.1859   -1.5923 C.2       2 UNK         0.4964 
     31 O          23.6485   26.6479   -1.1781 O.2       2 UNK        -0.5047 
     32 CA         25.8795   27.1485   -1.9150 C.3       2 UNK         0.0288 
     33 CB         25.8786   28.3899   -0.9961 C.3       2 UNK        -0.2113 
     34 N          27.2049   26.5082   -1.9093 N.am      2 UNK        -0.4145 
     35 C          27.7799   25.8698   -0.8789 C.2       1 UNK         0.5006 
     36 O          27.2760   25.7766    0.2445 O.2       1 UNK        -0.5103 
     37 C          28.4607   25.6766    3.6993 C.2       5 UNK         0.5055 
     38 O          28.7128   25.7850    4.9004 O.2       5 UNK        -0.5220 
     39 N          28.2680   26.7141    2.8757 N.am      6 UNK        -0.4450 
     40 CA         28.4530   28.1150    3.2245 C.3       6 UNK         0.0367 
     41 CB         27.0807   28.7728    3.4454 C.3       6 UNK        -0.1929 
     42 C          29.2113   28.7937    2.0800 C.2       6 UNK         0.5070 
     43 O          28.8132   28.6519    0.9230 O.2       6 UNK        -0.5237 
     44 N          30.2673   29.5368    2.4176 N.am      7 UNK        -0.4739 
     45 CA         31.0314   30.3773    1.5015 C.3       7 UNK         0.0276 
     46 CB         32.0507   29.5385    0.7099 C.3       7 UNK        -0.1927 
     47 C          31.7327   31.4346    2.3517 C.2       7 UNK         0.5013 
     48 O          32.4948   31.0610    3.2447 O.2       7 UNK        -0.5193 
     49 N          31.4785   32.7196    2.0709 N.am      8 UNK        -0.4253 
     50 CA         31.9228   33.8728    2.8698 C.3       8 UNK         0.0242 
     51 CB         31.3755   35.1626    2.2360 C.3       8 UNK        -0.2000 
     52 C          33.4441   33.9899    3.0871 C.2       8 UNK         0.4948 
     53 O          33.8678   34.6030    4.0675 O.2       8 UNK        -0.5275 
     54 N          34.2359   33.4021    2.1813 N.am      9 UNK        -0.4246 
     55 CA         35.6944   33.3325    2.2702 C.3       9 UNK         0.0261 
     56 CB         36.2609   33.0271    0.8732 C.3       9 UNK        -0.1959 
     57 C          36.2096   32.2992    3.2919 C.2       9 UNK         0.5033 
     58 O          37.3784   32.3896    3.6723 O.2       9 UNK        -0.5390 
     59 N          35.3709   31.3317    3.6922 N.am      10 UNK        -0.4215 
     60 CA         35.7552   30.2035    4.5472 C.3       10 UNK         0.0240 
     61 CB         35.7057   28.9114    3.7146 C.3       10 UNK        -0.1982 
     62 C          34.8722   30.0658    5.7965 C.2       10 UNK         0.4970 
     63 O          35.3847   29.6743    6.8459 O.2       10 UNK        -0.4916 
     64 N          33.5770   30.3663    5.6728 N.am      11 UNK        -0.4279 
     65 CA         32.5575   30.2010    6.7122 C.3       11 UNK         0.1003 
     66 C          31.3790   31.1892    6.4827 C.2       11 UNK         0.5709 
     67 N          30.1344   30.7865    6.7031 N.am      11 UNK        -0.7358 
     68 O          31.5912   32.3536    6.1525 O.2       11 UNK        -0.4999 
     69 C69        32.1669   28.7082    6.9354 C.3       12 UNK        -0.0954 
     70 S70        31.5728   27.8553    5.4314 S.3       12 UNK        -0.2268 
     71 C71        32.8396   26.5672    5.2438 C.3       12 UNK         0.0203 
     72 H72        29.2356   21.2603   -0.0648 H         1 UNK         0.0888 
     73 H73        27.5021   21.3341    0.2741 H         1 UNK         0.0888 
     74 H74        28.0810   20.6760   -1.2603 H         1 UNK         0.0888 
     75 H75        29.7267   23.4976   -0.0022 H         1 UNK         0.3017 
     76 H76        29.2349   25.0971   -2.2542 H         1 UNK         0.0873 
     77 H77        30.2290   25.9650    0.5110 H         1 UNK         0.0745 
     78 H78        30.3260   26.9348   -0.9397 H         1 UNK         0.0745 
     79 H79        34.0135   25.3314    0.0476 H         1 UNK         0.0705 
     80 H80        33.0494   26.7731    0.2410 H         1 UNK         0.0705 
     81 H81        33.2193   27.0593    2.6008 H         1 UNK         0.1334 
     82 H82        31.8293   24.0328    5.2878 H         1 UNK         0.1417 
     83 H83        32.0325   23.2230    1.0840 H         1 UNK         0.1562 
     84 H84        31.4262   21.8050    4.5075 H         1 UNK         0.0748 
     85 H85        31.9692   21.3600    2.9121 H         1 UNK         0.0748 
     86 H86        29.4079   23.3917    4.7406 H         1 UNK         0.0940 
     87 H87        27.8984   22.6106    4.4251 H         1 UNK         0.0940 
     88 H88        28.9632   24.3343    2.1818 H         1 UNK         0.0703 
     89 H89        26.8884   24.3714    1.5046 H         1 UNK         0.3081 
     90 H90        23.8018   23.5920    2.7635 H         1 UNK         0.0719 
     91 H91        23.7217   25.8376    3.8458 H         1 UNK         0.0809 
     92 H92        24.5265   26.5593    2.4576 H         1 UNK         0.0809 
     93 H93        22.9090   25.8790    2.2898 H         1 UNK         0.0809 
     94 H94        25.3541   24.8829    0.5459 H         1 UNK         0.2990 
     95 H95        24.6005   22.8470   -1.6718 H         1 UNK         0.0690 
     96 H96        22.9362   23.8678   -3.2546 H         1 UNK         0.0788 
     97 H97        22.1043   24.6076   -1.8867 H         1 UNK         0.0788 
     98 H98        22.1766   22.8602   -2.0357 H         1 UNK         0.0788 
     99 H99        25.8550   24.5799   -2.0793 H         1 UNK         0.2993 
    100 H100       25.7088   27.4919   -2.9364 H         1 UNK         0.0949 
    101 H101       25.9615   28.1149    0.0560 H         1 UNK         0.0767 
    102 H102       26.7085   29.0572   -1.2294 H         1 UNK         0.0767 
    103 H103       24.9592   28.9653   -1.1103 H         1 UNK         0.0767 
    104 H104       27.6857   26.5086   -2.7988 H         1 UNK         0.3013 
    105 H105       28.0424   26.5432    1.8983 H         1 UNK         0.3121 
    106 H106       29.0344   28.2051    4.1427 H         1 UNK         0.0774 
    107 H107       26.4580   28.7163    2.5515 H         1 UNK         0.0815 
    108 H108       26.5396   28.2924    4.2607 H         1 UNK         0.0815 
    109 H109       27.1909   29.8268    3.7031 H         1 UNK         0.0815 
    110 H110       30.5540   29.5957    3.3870 H         1 UNK         0.2987 
    111 H111       30.3467   30.8647    0.8037 H         1 UNK         0.0949 
    112 H112       31.5558   28.7767    0.1086 H         1 UNK         0.0806 
    113 H113       32.6262   30.1651    0.0278 H         1 UNK         0.0806 
    114 H114       32.7593   29.0387    1.3702 H         1 UNK         0.0806 
    115 H115       30.8539   32.9285    1.3049 H         1 UNK         0.3010 
    116 H116       31.4735   33.7661    3.8590 H         1 UNK         0.0829 
    117 H117       31.7560   35.3079    1.2241 H         1 UNK         0.0813 
    118 H118       31.6624   36.0382    2.8205 H         1 UNK         0.0813 
    119 H119       30.2863   35.1526    2.1891 H         1 UNK         0.0813 
    120 H120       33.8012   32.9339    1.3997 H         1 UNK         0.3038 
    121 H121       36.0676   34.3108    2.5813 H         1 UNK         0.0769 
    122 H122       35.9676   33.7881    0.1499 H         1 UNK         0.0811 
    123 H123       35.9212   32.0593    0.5017 H         1 UNK         0.0811 
    124 H124       37.3516   33.0040    0.8905 H         1 UNK         0.0811 
    125 H125       34.4076   31.3513    3.3699 H         1 UNK         0.3204 
    126 H126       36.7789   30.3293    4.9057 H         1 UNK         0.0748 
    127 H127       34.7075   28.7341    3.3139 H         1 UNK         0.0771 
    128 H128       36.3997   28.9557    2.8751 H         1 UNK         0.0771 
    129 H129       35.9805   28.0440    4.3163 H         1 UNK         0.0771 
    130 H130       33.2077   30.6866    4.7784 H         1 UNK         0.2980 
    131 H131       32.9996   30.5497    7.6471 H         1 UNK         0.0545 
    132 H132       29.9420   29.8357    6.9752 H         1 UNK         0.3459 
    133 H133       29.3782   31.4407    6.5806 H         1 UNK         0.3459 
    134 H134       31.4060   28.6168    7.7115 H         1 UNK         0.0616 
    135 H135       33.0303   28.1708    7.3295 H         1 UNK         0.0616 
    136 H136       33.8136   27.0386    5.1108 H         1 UNK         0.0634 
    137 H137       32.9003   25.9907    6.1682 H         1 UNK         0.0634 
@<TRIPOS>BOND
     1    1    2 1    
     2    1   72 1    
     3    1   73 1    
     4    1   74 1    
     5    2    3 2    
     6    2    4 am   BACKBONE|DICT|INTERRES
     7    4    5 1    
     8    4   75 1    
     9    5    6 1    
    10    5   35 1    
    11    5   76 1    
    12    6    7 1    
    13    6   77 1    
    14    6   78 1    
    15    7    8 1    
    16    8    9 1    
    17    8   79 1    
    18    8   80 1    
    19    9   10 ar   
    20    9   14 ar   
    21   10   11 ar   
    22   10   81 1    
    23   11   12 ar   
    24   11   71 1    
    25   12   13 ar   
    26   12   82 1    
    27   13   14 ar   
    28   13   15 1    
    29   14   83 1    
    30   15   16 1    
    31   15   84 1    
    32   15   85 1    
    33   16   17 1    
    34   17   18 1    
    35   17   86 1    
    36   17   87 1    
    37   18   19 1    
    38   18   37 1    
    39   18   88 1    
    40   19   20 am   BACKBONE|DICT|INTERRES
    41   19   89 1    
    42   20   21 2    
    43   20   22 1    
    44   22   23 1    
    45   22   24 1    
    46   22   90 1    
    47   23   91 1    
    48   23   92 1    
    49   23   93 1    
    50   24   25 am   BACKBONE|DICT|INTERRES
    51   24   94 1    
    52   25   26 2    
    53   25   27 1    
    54   27   28 1    
    55   27   29 1    
    56   27   95 1    
    57   28   96 1    
    58   28   97 1    
    59   28   98 1    
    60   29   30 am   BACKBONE|DICT|INTERRES
    61   29   99 1    
    62   30   31 2    
    63   30   32 1    
    64   32   33 1    
    65   32   34 1    
    66   32  100 1    
    67   33  101 1    
    68   33  102 1    
    69   33  103 1    
    70   34   35 am   BACKBONE|DICT|INTERRES
    71   34  104 1    
    72   35   36 2    
    73   37   38 2    
    74   37   39 am   BACKBONE|DICT|INTERRES
    75   39   40 1    
    76   39  105 1    
    77   40   41 1    
    78   40   42 1    
    79   40  106 1    
    80   41  107 1    
    81   41  108 1    
    82   41  109 1    
    83   42   43 2    
    84   42   44 am   BACKBONE|DICT|INTERRES
    85   44   45 1    
    86   44  110 1    
    87   45   46 1    
    88   45   47 1    
    89   45  111 1    
    90   46  112 1    
    91   46  113 1    
    92   46  114 1    
    93   47   48 2    
    94   47   49 am   BACKBONE|DICT|INTERRES
    95   49   50 1    
    96   49  115 1    
    97   50   51 1    
    98   50   52 1    
    99   50  116 1    
   100   51  117 1    
   101   51  118 1    
   102   51  119 1    
   103   52   53 2    
   104   52   54 am   BACKBONE|DICT|INTERRES
   105   54   55 1    
   106   54  120 1    
   107   55   56 1    
   108   55   57 1    
   109   55  121 1    
   110   56  122 1    
   111   56  123 1    
   112   56  124 1    
   113   57   58 2    
   114   57   59 am   BACKBONE|DICT|INTERRES
   115   59   60 1    
   116   59  125 1    
   117   60   61 1    
   118   60   62 1    
   119   60  126 1    
   120   61  127 1    
   121   61  128 1    
   122   61  129 1    
   123   62   63 2    
   124   62   64 am   BACKBONE|DICT|INTERRES
   125   64   65 1    
   126   64  130 1    
   127   65   66 1    
   128   65   69 1    
   129   65  131 1    
   130   66   67 am   BACKBONE|DICT|INTERRES
   131   66   68 2    
   132   67  132 1    
   133   67  133 1    
   134   69   70 1    
   135   69  134 1    
   136   69  135 1    
   137   70   71 1    
   138   71  136 1    
   139   71  137 1    
@<TRIPOS>SUBSTRUCTURE
     1 UNK         1 GROUP             0       ****    0 ROOT    
