@<TRIPOS>MOLECULE
3R136
137   139    1
SMALL
USER_CHARGES


@<TRIPOS>ATOM
      1 CA         29.0799   22.2159   -0.8543 C.3       0 UNK        -0.1979 
      2 C          28.9166   23.6557   -1.3153 C.2       0 UNK         0.4864 
      3 O          28.1790   23.9109   -2.2693 O.2       0 UNK        -0.5359 
      4 N          29.5900   24.6016   -0.6435 N.am      1 UNK        -0.4318 
      5 CA         29.5099   26.0429   -0.9084 C.3       1 UNK         0.0824 
      6 C6         30.4795   26.8485   -0.0155 C.3       12 UNK        -0.0944 
      7 S7         32.2245   26.7167   -0.5439 S.3       12 UNK        -0.2672 
      8 C8         32.8146   25.1177    0.1175 C.3       12 UNK         0.0333 
      9 C9         32.3746   24.8089    1.5450 C.ar      12 UNK        -0.0807 
     10 C10        32.4504   25.7749    2.5553 C.ar      12 UNK        -0.0894 
     11 C11        32.0120   25.4860    3.8506 C.ar      12 UNK        -0.0804 
     12 C12        31.5331   24.2068    4.1432 C.ar      12 UNK        -0.0824 
     13 C13        31.4445   23.2347    3.1423 C.ar      12 UNK        -0.0762 
     14 C14        31.8825   23.5364    1.8510 C.ar      12 UNK        -0.0782 
     15 C15        30.8299   21.8743    3.4413 C.3       12 UNK         0.0230 
     16 S16        29.0764   21.8088    2.9360 S.3       12 UNK        -0.2608 
     17 C17        28.3512   23.0978    4.0030 C.3       12 UNK        -0.0989 
     18 CA         28.1389   24.4304    3.2207 C.3       5 UNK         0.0716 
     19 N          26.8973   24.4696    2.4388 N.am      5 UNK        -0.4135 
     20 C          25.6470   24.4372    2.9270 C.2       4 UNK         0.5031 
     21 O          25.3749   24.2144    4.1073 O.2       4 UNK        -0.5229 
     22 CA         24.4899   24.7322    1.9602 C.3       4 UNK         0.0329 
     23 CB         23.9161   26.1329    2.2393 C.3       4 UNK        -0.2001 
     24 N          24.8846   24.6684    0.5518 N.am      4 UNK        -0.4303 
     25 C          24.2500   23.9682   -0.3997 C.2       3 UNK         0.5044 
     26 O          23.3193   23.1941   -0.1689 O.2       3 UNK        -0.5152 
     27 CA         24.7256   24.1649   -1.8578 C.3       3 UNK         0.0319 
     28 CB         23.5720   24.0619   -2.8782 C.3       3 UNK        -0.2001 
     29 N          25.5025   25.3955   -2.0613 N.am      3 UNK        -0.4354 
     30 C          25.0971   26.6634   -1.8636 C.2       2 UNK         0.4964 
     31 O          23.9272   26.9763   -1.6396 O.2       2 UNK        -0.5047 
     32 CA         26.1809   27.7663   -1.8701 C.3       2 UNK         0.0288 
     33 CB         25.9050   28.8519   -0.8067 C.3       2 UNK        -0.2113 
     34 N          27.5580   27.2667   -1.7343 N.am      2 UNK        -0.4145 
     35 C          28.0631   26.5394   -0.7253 C.2       1 UNK         0.5006 
     36 O          27.4258   26.1961    0.2770 O.2       1 UNK        -0.5103 
     37 C          28.2574   25.7051    4.0857 C.2       5 UNK         0.5055 
     38 O          28.4642   25.6265    5.2985 O.2       5 UNK        -0.5220 
     39 N          28.1016   26.8658    3.4365 N.am      6 UNK        -0.4450 
     40 CA         28.1362   28.1908    4.0468 C.3       6 UNK         0.0367 
     41 CB         26.7940   28.4685    4.7551 C.3       6 UNK        -0.1929 
     42 C          28.4156   29.2367    2.9597 C.2       6 UNK         0.5070 
     43 O          28.4302   28.8988    1.7749 O.2       6 UNK        -0.5237 
     44 N          28.5996   30.4921    3.3911 N.am      7 UNK        -0.4739 
     45 CA         28.7951   31.6936    2.5669 C.3       7 UNK         0.0276 
     46 CB         27.5327   31.9948    1.7293 C.3       7 UNK        -0.1927 
     47 C          30.0849   31.6758    1.7209 C.2       7 UNK         0.5013 
     48 O          30.1157   32.2648    0.6380 O.2       7 UNK        -0.5193 
     49 N          31.1340   31.0307    2.2420 N.am      8 UNK        -0.4253 
     50 CA         32.4876   31.0497    1.6949 C.3       8 UNK         0.0242 
     51 CB         33.0770   29.6344    1.8147 C.3       8 UNK        -0.2000 
     52 C          33.3406   32.0543    2.4823 C.2       8 UNK         0.4948 
     53 O          32.9551   32.4757    3.5755 O.2       8 UNK        -0.5275 
     54 N          34.5208   32.3858    1.9433 N.am      9 UNK        -0.4246 
     55 CA         35.5164   33.2256    2.6208 C.3       9 UNK         0.0261 
     56 CB         36.6297   33.6031    1.6299 C.3       9 UNK        -0.1959 
     57 C          36.1124   32.5599    3.8769 C.2       9 UNK         0.5033 
     58 O          36.4667   33.2623    4.8247 O.2       9 UNK        -0.5390 
     59 N          36.2078   31.2234    3.8590 N.am      10 UNK        -0.4215 
     60 CA         36.7263   30.4092    4.9578 C.3       10 UNK         0.0240 
     61 CB         37.2701   29.0897    4.3840 C.3       10 UNK        -0.1982 
     62 C          35.6872   30.1146    6.0541 C.2       10 UNK         0.4970 
     63 O          36.0907   29.8562    7.1891 O.2       10 UNK        -0.4916 
     64 N          34.3920   30.1195    5.7121 N.am      11 UNK        -0.4279 
     65 CA         33.3040   29.6654    6.5873 C.3       11 UNK         0.1003 
     66 C          31.9225   30.1445    6.0761 C.2       11 UNK         0.5709 
     67 N          31.0839   30.6719    6.9578 N.am      11 UNK        -0.7358 
     68 O          31.5834   30.0044    4.9040 O.2       11 UNK        -0.4999 
     69 C69        33.3317   28.1293    6.8585 C.3       12 UNK        -0.0954 
     70 S70        33.6708   27.0681    5.4056 S.3       12 UNK        -0.2268 
     71 C71        31.9942   26.5698    4.9179 C.3       12 UNK         0.0203 
     72 H72        28.1326   21.8367   -0.4719 H         1 UNK         0.0888 
     73 H73        29.3879   21.5870   -1.6890 H         1 UNK         0.0888 
     74 H74        29.8246   22.1197   -0.0661 H         1 UNK         0.0888 
     75 H75        30.1672   24.3409    0.1415 H         1 UNK         0.3017 
     76 H76        29.7928   26.1950   -1.9523 H         1 UNK         0.0873 
     77 H77        30.2407   27.9133   -0.0662 H         1 UNK         0.0745 
     78 H78        30.3604   26.5824    1.0350 H         1 UNK         0.0745 
     79 H79        33.9046   25.1112    0.0819 H         1 UNK         0.0705 
     80 H80        32.4865   24.3316   -0.5642 H         1 UNK         0.0705 
     81 H81        32.8258   26.7625    2.3290 H         1 UNK         0.1334 
     82 H82        31.1886   23.9825    5.1434 H         1 UNK         0.1417 
     83 H83        31.8263   22.7776    1.0825 H         1 UNK         0.1562 
     84 H84        30.9131   21.6380    4.5034 H         1 UNK         0.0748 
     85 H85        31.3814   21.0955    2.9124 H         1 UNK         0.0748 
     86 H86        29.0029   23.2249    4.8670 H         1 UNK         0.0940 
     87 H87        27.4172   22.7202    4.4183 H         1 UNK         0.0940 
     88 H88        28.9466   24.5272    2.4938 H         1 UNK         0.0703 
     89 H89        27.0185   24.7564    1.4741 H         1 UNK         0.3081 
     90 H90        23.7136   23.9938    2.1708 H         1 UNK         0.0719 
     91 H91        23.5861   26.2247    3.2750 H         1 UNK         0.0809 
     92 H92        24.6573   26.9135    2.0611 H         1 UNK         0.0809 
     93 H93        23.0542   26.3407    1.6047 H         1 UNK         0.0809 
     94 H94        25.6398   25.2838    0.2677 H         1 UNK         0.2990 
     95 H95        25.4137   23.3424   -2.0579 H         1 UNK         0.0690 
     96 H96        22.7951   24.8033   -2.6897 H         1 UNK         0.0788 
     97 H97        23.0986   23.0802   -2.8360 H         1 UNK         0.0788 
     98 H98        23.9306   24.2023   -3.8978 H         1 UNK         0.0788 
     99 H99        26.4875   25.2350   -2.2455 H         1 UNK         0.2993 
    100 H100       26.1196   28.2384   -2.8518 H         1 UNK         0.0949 
    101 H101       25.8912   28.4373    0.2021 H         1 UNK         0.0767 
    102 H102       26.6660   29.6317   -0.8329 H         1 UNK         0.0767 
    103 H103       24.9418   29.3354   -0.9738 H         1 UNK         0.0767 
    104 H104       28.1613   27.4650   -2.5210 H         1 UNK         0.3013 
    105 H105       27.9746   26.8814    2.4283 H         1 UNK         0.3121 
    106 H106       28.9537   28.2302    4.7703 H         1 UNK         0.0774 
    107 H107       26.7914   29.4453    5.2396 H         1 UNK         0.0815 
    108 H108       25.9605   28.4499    4.0516 H         1 UNK         0.0815 
    109 H109       26.5905   27.7298    5.5303 H         1 UNK         0.0815 
    110 H110       28.5957   30.6519    4.3886 H         1 UNK         0.2987 
    111 H111       28.9220   32.5199    3.2682 H         1 UNK         0.0949 
    112 H112       26.6391   32.0228    2.3526 H         1 UNK         0.0806 
    113 H113       27.6113   32.9639    1.2351 H         1 UNK         0.0806 
    114 H114       27.3764   31.2467    0.9519 H         1 UNK         0.0806 
    115 H115       31.0548   30.6436    3.1794 H         1 UNK         0.3010 
    116 H116       32.4727   31.3424    0.6429 H         1 UNK         0.0829 
    117 H117       32.4219   28.9079    1.3374 H         1 UNK         0.0813 
    118 H118       34.0490   29.5623    1.3260 H         1 UNK         0.0813 
    119 H119       33.2045   29.3276    2.8535 H         1 UNK         0.0813 
    120 H120       34.7709   32.0184    1.0357 H         1 UNK         0.3038 
    121 H121       35.0202   34.1444    2.9415 H         1 UNK         0.0769 
    122 H122       36.2316   34.1479    0.7737 H         1 UNK         0.0811 
    123 H123       37.3710   34.2477    2.1046 H         1 UNK         0.0811 
    124 H124       37.1555   32.7240    1.2553 H         1 UNK         0.0811 
    125 H125       35.9112   30.7343    3.0278 H         1 UNK         0.3204 
    126 H126       37.5572   30.9408    5.4272 H         1 UNK         0.0748 
    127 H127       38.0576   29.2686    3.6516 H         1 UNK         0.0771 
    128 H128       37.6986   28.4688    5.1722 H         1 UNK         0.0771 
    129 H129       36.4861   28.5043    3.9011 H         1 UNK         0.0771 
    130 H130       34.1067   30.3987    4.7846 H         1 UNK         0.2980 
    131 H131       33.4607   30.1604    7.5482 H         1 UNK         0.0545 
    132 H132       31.3436   30.7775    7.9260 H         1 UNK         0.3459 
    133 H133       30.1785   30.9840    6.6492 H         1 UNK         0.3459 
    134 H134       34.1221   27.9181    7.5798 H         1 UNK         0.0616 
    135 H135       32.4135   27.8015    7.3493 H         1 UNK         0.0616 
    136 H136       31.4536   27.4336    4.5319 H         1 UNK         0.0634 
    137 H137       31.4464   26.2305    5.7984 H         1 UNK         0.0634 
@<TRIPOS>BOND
     1    1    2 1    
     2    1   72 1    
     3    1   73 1    
     4    1   74 1    
     5    2    3 2    
     6    2    4 am   BACKBONE|DICT|INTERRES
     7    4    5 1    
     8    4   75 1    
     9    5    6 1    
    10    5   35 1    
    11    5   76 1    
    12    6    7 1    
    13    6   77 1    
    14    6   78 1    
    15    7    8 1    
    16    8    9 1    
    17    8   79 1    
    18    8   80 1    
    19    9   10 ar   
    20    9   14 ar   
    21   10   11 ar   
    22   10   81 1    
    23   11   12 ar   
    24   11   71 1    
    25   12   13 ar   
    26   12   82 1    
    27   13   14 ar   
    28   13   15 1    
    29   14   83 1    
    30   15   16 1    
    31   15   84 1    
    32   15   85 1    
    33   16   17 1    
    34   17   18 1    
    35   17   86 1    
    36   17   87 1    
    37   18   19 1    
    38   18   37 1    
    39   18   88 1    
    40   19   20 am   BACKBONE|DICT|INTERRES
    41   19   89 1    
    42   20   21 2    
    43   20   22 1    
    44   22   23 1    
    45   22   24 1    
    46   22   90 1    
    47   23   91 1    
    48   23   92 1    
    49   23   93 1    
    50   24   25 am   BACKBONE|DICT|INTERRES
    51   24   94 1    
    52   25   26 2    
    53   25   27 1    
    54   27   28 1    
    55   27   29 1    
    56   27   95 1    
    57   28   96 1    
    58   28   97 1    
    59   28   98 1    
    60   29   30 am   BACKBONE|DICT|INTERRES
    61   29   99 1    
    62   30   31 2    
    63   30   32 1    
    64   32   33 1    
    65   32   34 1    
    66   32  100 1    
    67   33  101 1    
    68   33  102 1    
    69   33  103 1    
    70   34   35 am   BACKBONE|DICT|INTERRES
    71   34  104 1    
    72   35   36 2    
    73   37   38 2    
    74   37   39 am   BACKBONE|DICT|INTERRES
    75   39   40 1    
    76   39  105 1    
    77   40   41 1    
    78   40   42 1    
    79   40  106 1    
    80   41  107 1    
    81   41  108 1    
    82   41  109 1    
    83   42   43 2    
    84   42   44 am   BACKBONE|DICT|INTERRES
    85   44   45 1    
    86   44  110 1    
    87   45   46 1    
    88   45   47 1    
    89   45  111 1    
    90   46  112 1    
    91   46  113 1    
    92   46  114 1    
    93   47   48 2    
    94   47   49 am   BACKBONE|DICT|INTERRES
    95   49   50 1    
    96   49  115 1    
    97   50   51 1    
    98   50   52 1    
    99   50  116 1    
   100   51  117 1    
   101   51  118 1    
   102   51  119 1    
   103   52   53 2    
   104   52   54 am   BACKBONE|DICT|INTERRES
   105   54   55 1    
   106   54  120 1    
   107   55   56 1    
   108   55   57 1    
   109   55  121 1    
   110   56  122 1    
   111   56  123 1    
   112   56  124 1    
   113   57   58 2    
   114   57   59 am   BACKBONE|DICT|INTERRES
   115   59   60 1    
   116   59  125 1    
   117   60   61 1    
   118   60   62 1    
   119   60  126 1    
   120   61  127 1    
   121   61  128 1    
   122   61  129 1    
   123   62   63 2    
   124   62   64 am   BACKBONE|DICT|INTERRES
   125   64   65 1    
   126   64  130 1    
   127   65   66 1    
   128   65   69 1    
   129   65  131 1    
   130   66   67 am   BACKBONE|DICT|INTERRES
   131   66   68 2    
   132   67  132 1    
   133   67  133 1    
   134   69   70 1    
   135   69  134 1    
   136   69  135 1    
   137   70   71 1    
   138   71  136 1    
   139   71  137 1    
@<TRIPOS>SUBSTRUCTURE
     1 UNK         1 GROUP             0       ****    0 ROOT    
