@<TRIPOS>MOLECULE
3R136
137   139    1
SMALL
USER_CHARGES


@<TRIPOS>ATOM
      1 CA         32.6882   22.3035   -1.6254 C.3       0 UNK        -0.1979 
      2 C          32.3776   21.7819   -0.2243 C.2       0 UNK         0.4864 
      3 O          32.9783   20.7944    0.1974 O.2       0 UNK        -0.5359 
      4 N          31.4704   22.4081    0.5381 N.am      1 UNK        -0.4318 
      5 CA         30.6110   23.5341    0.1563 C.3       1 UNK         0.0824 
      6 C6         30.0838   24.2906    1.4047 C.3       12 UNK        -0.0944 
      7 S7         29.1511   23.2501    2.5829 S.3       12 UNK        -0.2672 
      8 C8         29.7776   23.8517    4.1815 C.3       12 UNK         0.0333 
      9 C9         29.3685   25.2941    4.4451 C.ar      12 UNK        -0.0807 
     10 C10        30.3260   26.3136    4.4370 C.ar      12 UNK        -0.0894 
     11 C11        29.9578   27.6337    4.7130 C.ar      12 UNK        -0.0804 
     12 C12        28.6175   27.9333    4.9723 C.ar      12 UNK        -0.0824 
     13 C13        27.6489   26.9241    4.9764 C.ar      12 UNK        -0.0762 
     14 C14        28.0328   25.6048    4.7200 C.ar      12 UNK        -0.0782 
     15 C15        26.1936   27.2598    5.2822 C.3       12 UNK         0.0230 
     16 S16        25.0851   27.0024    3.8558 S.3       12 UNK        -0.2608 
     17 C17        25.8465   28.0617    2.5812 C.3       12 UNK        -0.0989 
     18 CA         26.2700   27.2232    1.3415 C.3       5 UNK         0.0716 
     19 N          25.1598   26.7397    0.5088 N.am      5 UNK        -0.4135 
     20 C          24.1441   27.4358   -0.0289 C.2       4 UNK         0.5031 
     21 O          23.9244   28.6263    0.1998 O.2       4 UNK        -0.5229 
     22 CA         23.2054   26.7009   -1.0123 C.3       4 UNK         0.0329 
     23 CB         23.0714   27.4821   -2.3324 C.3       4 UNK        -0.2001 
     24 N          23.6391   25.3384   -1.3271 N.am      4 UNK        -0.4303 
     25 C          23.3539   24.2426   -0.6112 C.2       3 UNK         0.5044 
     26 O          22.6127   24.2386    0.3716 O.2       3 UNK        -0.5152 
     27 CA         24.0410   22.9326   -1.0489 C.3       3 UNK         0.0319 
     28 CB         23.0897   22.0912   -1.9149 C.3       3 UNK        -0.2001 
     29 N          25.3082   23.1273   -1.7700 N.am      3 UNK        -0.4354 
     30 C          26.3930   23.7266   -1.2594 C.2       2 UNK         0.4964 
     31 O          26.4346   24.2054   -0.1240 O.2       2 UNK        -0.5047 
     32 CA         27.5983   23.8911   -2.2006 C.3       2 UNK         0.0288 
     33 CB         27.3968   25.1174   -3.1075 C.3       2 UNK        -0.2113 
     34 N          28.8362   24.0693   -1.4405 N.am      2 UNK        -0.4145 
     35 C          29.4543   23.0906   -0.7667 C.2       1 UNK         0.5006 
     36 O          29.1355   21.9003   -0.8448 O.2       1 UNK        -0.5103 
     37 C          27.3465   27.9344    0.4991 C.2       5 UNK         0.5055 
     38 O          27.0714   28.4546   -0.5853 O.2       5 UNK        -0.5220 
     39 N          28.5752   27.9259    1.0276 N.am      6 UNK        -0.4450 
     40 CA         29.7231   28.6507    0.4857 C.3       6 UNK         0.0367 
     41 CB         30.9933   27.8182    0.7373 C.3       6 UNK        -0.1929 
     42 C          29.8363   30.0375    1.1402 C.2       6 UNK         0.5070 
     43 O          29.1128   30.3391    2.0934 O.2       6 UNK        -0.5237 
     44 N          30.7663   30.8528    0.6277 N.am      7 UNK        -0.4739 
     45 CA         31.1711   32.1244    1.2318 C.3       7 UNK         0.0276 
     46 CB         32.0750   32.8820    0.2458 C.3       7 UNK        -0.1927 
     47 C          31.9090   31.8956    2.5618 C.2       7 UNK         0.5013 
     48 O          32.5823   30.8733    2.7140 O.2       7 UNK        -0.5193 
     49 N          31.8076   32.8682    3.4794 N.am      8 UNK        -0.4253 
     50 CA         32.3440   32.8155    4.8476 C.3       8 UNK         0.0242 
     51 CB         32.0509   34.1432    5.5636 C.3       8 UNK        -0.2000 
     52 C          33.8401   32.4702    4.9542 C.2       8 UNK         0.4948 
     53 O          34.2409   31.8234    5.9207 O.2       8 UNK        -0.5275 
     54 N          34.6317   32.8423    3.9392 N.am      9 UNK        -0.4246 
     55 CA         36.0476   32.4871    3.8028 C.3       9 UNK         0.0261 
     56 CB         36.6187   33.1791    2.5543 C.3       9 UNK        -0.1959 
     57 C          36.3238   30.9695    3.7484 C.2       9 UNK         0.5033 
     58 O          37.4388   30.5587    4.0733 O.2       9 UNK        -0.5390 
     59 N          35.3246   30.1661    3.3547 N.am      10 UNK        -0.4215 
     60 CA         35.4099   28.7069    3.2918 C.3       10 UNK         0.0240 
     61 CB         34.5139   28.2063    2.1452 C.3       10 UNK        -0.1982 
     62 C          35.0388   28.0079    4.6143 C.2       10 UNK         0.4970 
     63 O          35.1606   26.7830    4.6704 O.2       10 UNK        -0.4916 
     64 N          34.5849   28.7480    5.6373 N.am      11 UNK        -0.4279 
     65 CA         34.1142   28.1766    6.9123 C.3       11 UNK         0.1003 
     66 C          34.4831   28.9870    8.1855 C.2       11 UNK         0.5709 
     67 N          34.8793   30.2491    8.0987 N.am      11 UNK        -0.7358 
     68 O          34.4437   28.4410    9.2861 O.2       11 UNK        -0.4999 
     69 C69        32.6128   27.7816    6.8629 C.3       12 UNK        -0.0954 
     70 S70        31.4992   29.1668    6.4369 S.3       12 UNK        -0.2268 
     71 C71        31.0010   28.7419    4.7380 C.3       12 UNK         0.0203 
     72 H72        33.4873   21.7186   -2.0806 H         1 UNK         0.0888 
     73 H73        31.8159   22.2285   -2.2735 H         1 UNK         0.0888 
     74 H74        33.0194   23.3409   -1.5933 H         1 UNK         0.0888 
     75 H75        31.2606   22.0207    1.4468 H         1 UNK         0.3017 
     76 H76        31.2172   24.2427   -0.4108 H         1 UNK         0.0873 
     77 H77        30.9305   24.7423    1.9236 H         1 UNK         0.0745 
     78 H78        29.4416   25.1241    1.1166 H         1 UNK         0.0745 
     79 H79        29.3823   23.2169    4.9757 H         1 UNK         0.0705 
     80 H80        30.8625   23.7383    4.2120 H         1 UNK         0.0705 
     81 H81        31.3609   26.0775    4.2302 H         1 UNK         0.1334 
     82 H82        28.3339   28.9562    5.1811 H         1 UNK         0.1417 
     83 H83        27.2892   24.8190    4.7267 H         1 UNK         0.1562 
     84 H84        26.0971   28.2932    5.6192 H         1 UNK         0.0748 
     85 H85        25.8508   26.6378    6.1103 H         1 UNK         0.0748 
     86 H86        26.7033   28.5783    3.0152 H         1 UNK         0.0940 
     87 H87        25.1530   28.8607    2.3228 H         1 UNK         0.0940 
     88 H88        26.7502   26.3135    1.7085 H         1 UNK         0.0703 
     89 H89        25.2683   25.7711    0.2279 H         1 UNK         0.3081 
     90 H90        22.2202   26.6606   -0.5429 H         1 UNK         0.0719 
     91 H91        24.0342   27.5954   -2.8326 H         1 UNK         0.0809 
     92 H92        22.3894   26.9841   -3.0219 H         1 UNK         0.0809 
     93 H93        22.6753   28.4836   -2.1590 H         1 UNK         0.0809 
     94 H94        24.2545   25.2354   -2.1207 H         1 UNK         0.2990 
     95 H95        24.2648   22.3686   -0.1408 H         1 UNK         0.0690 
     96 H96        23.5223   21.1188   -2.1515 H         1 UNK         0.0788 
     97 H97        22.8492   22.5911   -2.8541 H         1 UNK         0.0788 
     98 H98        22.1488   21.9059   -1.3944 H         1 UNK         0.0788 
     99 H99        25.3455   22.7755   -2.7166 H         1 UNK         0.2993 
    100 H100       27.6895   22.9957   -2.8199 H         1 UNK         0.0949 
    101 H101       28.2435   25.2556   -3.7805 H         1 UNK         0.0767 
    102 H102       26.5083   25.0062   -3.7304 H         1 UNK         0.0767 
    103 H103       27.2765   26.0347   -2.5282 H         1 UNK         0.0767 
    104 H104       29.1395   25.0223   -1.3070 H         1 UNK         0.3013 
    105 H105       28.6978   27.5440    1.9553 H         1 UNK         0.3121 
    106 H106       29.6054   28.7918   -0.5910 H         1 UNK         0.0774 
    107 H107       31.1440   27.6212    1.7988 H         1 UNK         0.0815 
    108 H108       31.8846   28.3292    0.3718 H         1 UNK         0.0815 
    109 H109       30.9468   26.8617    0.2191 H         1 UNK         0.0815 
    110 H110       31.3366   30.5186   -0.1353 H         1 UNK         0.2987 
    111 H111       30.2729   32.7164    1.4220 H         1 UNK         0.0949 
    112 H112       32.9913   32.3297    0.0316 H         1 UNK         0.0806 
    113 H113       31.5648   33.0656   -0.7000 H         1 UNK         0.0806 
    114 H114       32.3669   33.8535    0.6469 H         1 UNK         0.0806 
    115 H115       31.2548   33.6826    3.2525 H         1 UNK         0.3010 
    116 H116       31.8017   32.0238    5.3679 H         1 UNK         0.0829 
    117 H117       30.9801   34.3418    5.6119 H         1 UNK         0.0813 
    118 H118       32.4194   34.1223    6.5905 H         1 UNK         0.0813 
    119 H119       32.5286   34.9865    5.0631 H         1 UNK         0.0813 
    120 H120       34.2164   33.3606    3.1792 H         1 UNK         0.3038 
    121 H121       36.5679   32.8769    4.6802 H         1 UNK         0.0769 
    122 H122       36.1159   32.8484    1.6445 H         1 UNK         0.0811 
    123 H123       37.6810   32.9594    2.4375 H         1 UNK         0.0811 
    124 H124       36.5204   34.2629    2.6195 H         1 UNK         0.0811 
    125 H125       34.4188   30.5697    3.1209 H         1 UNK         0.3204 
    126 H126       36.4369   28.4193    3.0570 H         1 UNK         0.0748 
    127 H127       33.4624   28.4128    2.3396 H         1 UNK         0.0771 
    128 H128       34.7782   28.6776    1.1985 H         1 UNK         0.0771 
    129 H129       34.6132   27.1286    2.0088 H         1 UNK         0.0771 
    130 H130       34.5120   29.7537    5.5451 H         1 UNK         0.2980 
    131 H131       34.6636   27.2457    7.0661 H         1 UNK         0.0545 
    132 H132       34.7921   30.7761    7.2324 H         1 UNK         0.3459 
    133 H133       35.1302   30.7338    8.9448 H         1 UNK         0.3459 
    134 H134       32.4800   26.9751    6.1427 H         1 UNK         0.0616 
    135 H135       32.2908   27.3663    7.8194 H         1 UNK         0.0616 
    136 H136       31.8806   28.4669    4.1556 H         1 UNK         0.0634 
    137 H137       30.5906   29.6350    4.2666 H         1 UNK         0.0634 
@<TRIPOS>BOND
     1    1    2 1    
     2    1   72 1    
     3    1   73 1    
     4    1   74 1    
     5    2    3 2    
     6    2    4 am   BACKBONE|DICT|INTERRES
     7    4    5 1    
     8    4   75 1    
     9    5    6 1    
    10    5   35 1    
    11    5   76 1    
    12    6    7 1    
    13    6   77 1    
    14    6   78 1    
    15    7    8 1    
    16    8    9 1    
    17    8   79 1    
    18    8   80 1    
    19    9   10 ar   
    20    9   14 ar   
    21   10   11 ar   
    22   10   81 1    
    23   11   12 ar   
    24   11   71 1    
    25   12   13 ar   
    26   12   82 1    
    27   13   14 ar   
    28   13   15 1    
    29   14   83 1    
    30   15   16 1    
    31   15   84 1    
    32   15   85 1    
    33   16   17 1    
    34   17   18 1    
    35   17   86 1    
    36   17   87 1    
    37   18   19 1    
    38   18   37 1    
    39   18   88 1    
    40   19   20 am   BACKBONE|DICT|INTERRES
    41   19   89 1    
    42   20   21 2    
    43   20   22 1    
    44   22   23 1    
    45   22   24 1    
    46   22   90 1    
    47   23   91 1    
    48   23   92 1    
    49   23   93 1    
    50   24   25 am   BACKBONE|DICT|INTERRES
    51   24   94 1    
    52   25   26 2    
    53   25   27 1    
    54   27   28 1    
    55   27   29 1    
    56   27   95 1    
    57   28   96 1    
    58   28   97 1    
    59   28   98 1    
    60   29   30 am   BACKBONE|DICT|INTERRES
    61   29   99 1    
    62   30   31 2    
    63   30   32 1    
    64   32   33 1    
    65   32   34 1    
    66   32  100 1    
    67   33  101 1    
    68   33  102 1    
    69   33  103 1    
    70   34   35 am   BACKBONE|DICT|INTERRES
    71   34  104 1    
    72   35   36 2    
    73   37   38 2    
    74   37   39 am   BACKBONE|DICT|INTERRES
    75   39   40 1    
    76   39  105 1    
    77   40   41 1    
    78   40   42 1    
    79   40  106 1    
    80   41  107 1    
    81   41  108 1    
    82   41  109 1    
    83   42   43 2    
    84   42   44 am   BACKBONE|DICT|INTERRES
    85   44   45 1    
    86   44  110 1    
    87   45   46 1    
    88   45   47 1    
    89   45  111 1    
    90   46  112 1    
    91   46  113 1    
    92   46  114 1    
    93   47   48 2    
    94   47   49 am   BACKBONE|DICT|INTERRES
    95   49   50 1    
    96   49  115 1    
    97   50   51 1    
    98   50   52 1    
    99   50  116 1    
   100   51  117 1    
   101   51  118 1    
   102   51  119 1    
   103   52   53 2    
   104   52   54 am   BACKBONE|DICT|INTERRES
   105   54   55 1    
   106   54  120 1    
   107   55   56 1    
   108   55   57 1    
   109   55  121 1    
   110   56  122 1    
   111   56  123 1    
   112   56  124 1    
   113   57   58 2    
   114   57   59 am   BACKBONE|DICT|INTERRES
   115   59   60 1    
   116   59  125 1    
   117   60   61 1    
   118   60   62 1    
   119   60  126 1    
   120   61  127 1    
   121   61  128 1    
   122   61  129 1    
   123   62   63 2    
   124   62   64 am   BACKBONE|DICT|INTERRES
   125   64   65 1    
   126   64  130 1    
   127   65   66 1    
   128   65   69 1    
   129   65  131 1    
   130   66   67 am   BACKBONE|DICT|INTERRES
   131   66   68 2    
   132   67  132 1    
   133   67  133 1    
   134   69   70 1    
   135   69  134 1    
   136   69  135 1    
   137   70   71 1    
   138   71  136 1    
   139   71  137 1    
@<TRIPOS>SUBSTRUCTURE
     1 UNK         1 GROUP             0       ****    0 ROOT    
