@<TRIPOS>MOLECULE
3R136
137   139    1
SMALL
USER_CHARGES


@<TRIPOS>ATOM
      1 CA         27.2088   18.2137    2.2435 C.3       0 UNK        -0.1979 
      2 C          27.7544   19.3706    1.4190 C.2       0 UNK         0.4864 
      3 O          28.1775   19.1641    0.2801 O.2       0 UNK        -0.5359 
      4 N          27.7568   20.5824    1.9883 N.am      1 UNK        -0.4318 
      5 CA         28.2022   21.8168    1.3329 C.3       1 UNK         0.0824 
      6 C6         28.4224   22.9722    2.3457 C.3       12 UNK        -0.0944 
      7 S7         29.4497   22.5282    3.7857 S.3       12 UNK        -0.2672 
      8 C8         31.1337   22.5925    3.1002 C.3       12 UNK         0.0333 
      9 C9         31.5853   24.0070    2.7631 C.ar      12 UNK        -0.0807 
     10 C10        31.7864   24.9444    3.7819 C.ar      12 UNK        -0.0894 
     11 C11        32.2705   26.2216    3.4839 C.ar      12 UNK        -0.0804 
     12 C12        32.5611   26.5544    2.1591 C.ar      12 UNK        -0.0824 
     13 C13        32.3443   25.6353    1.1287 C.ar      12 UNK        -0.0762 
     14 C14        31.8542   24.3624    1.4372 C.ar      12 UNK        -0.0782 
     15 C15        32.6779   26.0023   -0.3118 C.3       12 UNK         0.0230 
     16 S16        31.8600   27.5336   -0.8656 S.3       12 UNK        -0.2608 
     17 C17        30.1028   27.0466   -0.8737 C.3       12 UNK        -0.0989 
     18 CA         29.2039   28.0888   -0.1560 C.3       5 UNK         0.0716 
     19 N          27.9001   28.1902   -0.8172 N.am      5 UNK        -0.4135 
     20 C          27.2802   29.3330   -1.1398 C.2       4 UNK         0.5031 
     21 O          27.7195   30.4516   -0.8708 O.2       4 UNK        -0.5229 
     22 CA         25.9607   29.2261   -1.9298 C.3       4 UNK         0.0329 
     23 CB         26.2103   29.5081   -3.4208 C.3       4 UNK        -0.2001 
     24 N          25.3022   27.9239   -1.7980 N.am      4 UNK        -0.4303 
     25 C          24.5810   27.5469   -0.7340 C.2       3 UNK         0.5044 
     26 O          24.3488   28.2770    0.2293 O.2       3 UNK        -0.5152 
     27 CA         24.0436   26.1027   -0.7298 C.3       3 UNK         0.0319 
     28 CB         22.6331   26.0563   -1.3392 C.3       3 UNK        -0.2001 
     29 N          24.8940   25.1055   -1.3982 N.am      3 UNK        -0.4354 
     30 C          26.1776   24.8635   -1.1010 C.2       2 UNK         0.4964 
     31 O          26.8503   25.5673   -0.3465 O.2       2 UNK        -0.5047 
     32 CA         26.8457   23.6501   -1.7648 C.3       2 UNK         0.0288 
     33 CB         27.7183   24.1012   -2.9473 C.3       2 UNK        -0.2113 
     34 N          27.6806   22.9447   -0.7879 N.am      2 UNK        -0.4145 
     35 C          27.1900   22.2617    0.2565 C.2       1 UNK         0.5006 
     36 O          25.9869   22.0315    0.4151 O.2       1 UNK        -0.5103 
     37 C          29.0503   27.7829    1.3483 C.2       5 UNK         0.5055 
     38 O          29.8902   28.2150    2.1367 O.2       5 UNK        -0.5220 
     39 N          27.9809   27.0627    1.7203 N.am      6 UNK        -0.4450 
     40 CA         27.6063   26.6574    3.0769 C.3       6 UNK         0.0367 
     41 CB         26.2047   26.0224    3.0284 C.3       6 UNK        -0.1929 
     42 C          27.6447   27.8190    4.0870 C.2       6 UNK         0.5070 
     43 O          26.7804   28.6965    4.0438 O.2       6 UNK        -0.5237 
     44 N          28.6664   27.8000    4.9545 N.am      7 UNK        -0.4739 
     45 CA         28.9826   28.8005    5.9829 C.3       7 UNK         0.0276 
     46 CB         27.8856   28.8353    7.0693 C.3       7 UNK        -0.1927 
     47 C          29.3177   30.2036    5.4295 C.2       7 UNK         0.5013 
     48 O          29.1731   31.1879    6.1582 O.2       7 UNK        -0.5193 
     49 N          29.7740   30.2847    4.1706 N.am      8 UNK        -0.4253 
     50 CA         30.2624   31.5172    3.5470 C.3       8 UNK         0.0242 
     51 CB         30.3059   31.3310    2.0197 C.3       8 UNK        -0.2000 
     52 C          31.6494   31.9164    4.0796 C.2       8 UNK         0.4948 
     53 O          32.3394   31.1033    4.7005 O.2       8 UNK        -0.5275 
     54 N          32.0587   33.1532    3.7606 N.am      9 UNK        -0.4246 
     55 CA         33.3213   33.7944    4.1598 C.3       9 UNK         0.0261 
     56 CB         33.3178   35.2478    3.6552 C.3       9 UNK        -0.1959 
     57 C          34.6166   33.0744    3.7261 C.2       9 UNK         0.5033 
     58 O          35.6935   33.4515    4.1909 O.2       9 UNK        -0.5390 
     59 N          34.5027   32.0495    2.8697 N.am      10 UNK        -0.4215 
     60 CA         35.5625   31.0891    2.5573 C.3       10 UNK         0.0240 
     61 CB         35.0870   30.1643    1.4244 C.3       10 UNK        -0.1982 
     62 C          36.0019   30.2604    3.7815 C.2       10 UNK         0.4970 
     63 O          37.1734   29.8872    3.8554 O.2       10 UNK        -0.4916 
     64 N          35.0747   30.0052    4.7148 N.am      11 UNK        -0.4279 
     65 CA         35.3514   29.3915    6.0185 C.3       11 UNK         0.1003 
     66 C          35.6139   30.4877    7.0827 C.2       11 UNK         0.5709 
     67 N          36.5783   30.2750    7.9679 N.am      11 UNK        -0.7358 
     68 O          34.9301   31.5080    7.1405 O.2       11 UNK        -0.4999 
     69 C69        34.2007   28.4537    6.4623 C.3       12 UNK        -0.0954 
     70 S70        34.0925   26.9789    5.3975 S.3       12 UNK        -0.2268 
     71 C71        32.4899   27.2431    4.5871 C.3       12 UNK         0.0203 
     72 H72        26.8862   18.5357    3.2336 H         1 UNK         0.0888 
     73 H73        27.9742   17.4483    2.3690 H         1 UNK         0.0888 
     74 H74        26.3548   17.7633    1.7384 H         1 UNK         0.0888 
     75 H75        27.3922   20.6966    2.9229 H         1 UNK         0.3017 
     76 H76        29.1525   21.6047    0.8386 H         1 UNK         0.0873 
     77 H77        28.8573   23.8442    1.8530 H         1 UNK         0.0745 
     78 H78        27.4632   23.3017    2.7474 H         1 UNK         0.0745 
     79 H79        31.8219   22.1724    3.8350 H         1 UNK         0.0705 
     80 H80        31.1920   21.9411    2.2272 H         1 UNK         0.0705 
     81 H81        31.5815   24.6731    4.8086 H         1 UNK         0.1334 
     82 H82        32.9402   27.5391    1.9254 H         1 UNK         0.1417 
     83 H83        31.7071   23.6385    0.6473 H         1 UNK         0.1562 
     84 H84        32.4131   25.1942   -0.9956 H         1 UNK         0.0748 
     85 H85        33.7574   26.1339   -0.3959 H         1 UNK         0.0748 
     86 H86        29.9703   26.0444   -0.4605 H         1 UNK         0.0940 
     87 H87        29.8215   26.9640   -1.9249 H         1 UNK         0.0940 
     88 H88        29.6941   29.0626   -0.2217 H         1 UNK         0.0703 
     89 H89        27.4322   27.3109   -1.0064 H         1 UNK         0.3081 
     90 H90        25.2885   29.9978   -1.5478 H         1 UNK         0.0719 
     91 H91        26.8756   28.7679   -3.8673 H         1 UNK         0.0809 
     92 H92        25.2783   29.5083   -3.9864 H         1 UNK         0.0809 
     93 H93        26.6716   30.4868   -3.5610 H         1 UNK         0.0809 
     94 H94        25.4294   27.2630   -2.5509 H         1 UNK         0.2990 
     95 H95        23.9680   25.7996    0.3167 H         1 UNK         0.0690 
     96 H96        22.1828   25.0699   -1.2259 H         1 UNK         0.0788 
     97 H97        22.6442   26.3017   -2.4020 H         1 UNK         0.0788 
     98 H98        21.9703   26.7697   -0.8469 H         1 UNK         0.0788 
     99 H99        24.4276   24.4913   -2.0508 H         1 UNK         0.2993 
    100 H100       26.0766   22.9650   -2.1285 H         1 UNK         0.0949 
    101 H101       28.5062   24.7868   -2.6324 H         1 UNK         0.0767 
    102 H102       28.1914   23.2500   -3.4374 H         1 UNK         0.0767 
    103 H103       27.1203   24.6154   -3.7010 H         1 UNK         0.0767 
    104 H104       28.6732   23.1181   -0.8386 H         1 UNK         0.3013 
    105 H105       27.3930   26.6883    0.9805 H         1 UNK         0.3121 
    106 H106       28.3174   25.8908    3.3913 H         1 UNK         0.0774 
    107 H107       25.9097   25.6521    4.0108 H         1 UNK         0.0815 
    108 H108       25.4493   26.7422    2.7091 H         1 UNK         0.0815 
    109 H109       26.1651   25.1818    2.3366 H         1 UNK         0.0815 
    110 H110       29.3387   27.0514    4.8604 H         1 UNK         0.2987 
    111 H111       29.8993   28.4565    6.4638 H         1 UNK         0.0949 
    112 H112       26.9502   29.2448    6.6870 H         1 UNK         0.0806 
    113 H113       27.6814   27.8386    7.4602 H         1 UNK         0.0806 
    114 H114       28.1889   29.4552    7.9139 H         1 UNK         0.0806 
    115 H115       29.8583   29.4351    3.6169 H         1 UNK         0.3010 
    116 H116       29.5605   32.3207    3.7805 H         1 UNK         0.0829 
    117 H117       29.3364   31.0173    1.6315 H         1 UNK         0.0813 
    118 H118       30.5663   32.2594    1.5107 H         1 UNK         0.0813 
    119 H119       31.0419   30.5814    1.7253 H         1 UNK         0.0813 
    120 H120       31.4287   33.7327    3.2239 H         1 UNK         0.3038 
    121 H121       33.3350   33.8132    5.2516 H         1 UNK         0.0769 
    122 H122       33.2765   35.2959    2.5663 H         1 UNK         0.0811 
    123 H123       34.2196   35.7754    3.9698 H         1 UNK         0.0811 
    124 H124       32.4685   35.8053    4.0506 H         1 UNK         0.0811 
    125 H125       33.5763   31.8226    2.5411 H         1 UNK         0.3204 
    126 H126       36.4316   31.6495    2.2065 H         1 UNK         0.0748 
    127 H127       35.8582   29.4383    1.1627 H         1 UNK         0.0771 
    128 H128       34.1951   29.6044    1.7080 H         1 UNK         0.0771 
    129 H129       34.8557   30.7287    0.5208 H         1 UNK         0.0771 
    130 H130       34.1428   30.3987    4.6145 H         1 UNK         0.2980 
    131 H131       36.2555   28.7838    5.9409 H         1 UNK         0.0545 
    132 H132       37.1373   29.4364    7.9401 H         1 UNK         0.3459 
    133 H133       36.7531   30.9701    8.6767 H         1 UNK         0.3459 
    134 H134       33.2469   28.9852    6.4736 H         1 UNK         0.0616 
    135 H135       34.3656   28.1007    7.4820 H         1 UNK         0.0616 
    136 H136       32.4457   28.2554    4.1807 H         1 UNK         0.0634 
    137 H137       31.6951   27.1690    5.3295 H         1 UNK         0.0634 
@<TRIPOS>BOND
     1    1    2 1    
     2    1   72 1    
     3    1   73 1    
     4    1   74 1    
     5    2    3 2    
     6    2    4 am   BACKBONE|DICT|INTERRES
     7    4    5 1    
     8    4   75 1    
     9    5    6 1    
    10    5   35 1    
    11    5   76 1    
    12    6    7 1    
    13    6   77 1    
    14    6   78 1    
    15    7    8 1    
    16    8    9 1    
    17    8   79 1    
    18    8   80 1    
    19    9   10 ar   
    20    9   14 ar   
    21   10   11 ar   
    22   10   81 1    
    23   11   12 ar   
    24   11   71 1    
    25   12   13 ar   
    26   12   82 1    
    27   13   14 ar   
    28   13   15 1    
    29   14   83 1    
    30   15   16 1    
    31   15   84 1    
    32   15   85 1    
    33   16   17 1    
    34   17   18 1    
    35   17   86 1    
    36   17   87 1    
    37   18   19 1    
    38   18   37 1    
    39   18   88 1    
    40   19   20 am   BACKBONE|DICT|INTERRES
    41   19   89 1    
    42   20   21 2    
    43   20   22 1    
    44   22   23 1    
    45   22   24 1    
    46   22   90 1    
    47   23   91 1    
    48   23   92 1    
    49   23   93 1    
    50   24   25 am   BACKBONE|DICT|INTERRES
    51   24   94 1    
    52   25   26 2    
    53   25   27 1    
    54   27   28 1    
    55   27   29 1    
    56   27   95 1    
    57   28   96 1    
    58   28   97 1    
    59   28   98 1    
    60   29   30 am   BACKBONE|DICT|INTERRES
    61   29   99 1    
    62   30   31 2    
    63   30   32 1    
    64   32   33 1    
    65   32   34 1    
    66   32  100 1    
    67   33  101 1    
    68   33  102 1    
    69   33  103 1    
    70   34   35 am   BACKBONE|DICT|INTERRES
    71   34  104 1    
    72   35   36 2    
    73   37   38 2    
    74   37   39 am   BACKBONE|DICT|INTERRES
    75   39   40 1    
    76   39  105 1    
    77   40   41 1    
    78   40   42 1    
    79   40  106 1    
    80   41  107 1    
    81   41  108 1    
    82   41  109 1    
    83   42   43 2    
    84   42   44 am   BACKBONE|DICT|INTERRES
    85   44   45 1    
    86   44  110 1    
    87   45   46 1    
    88   45   47 1    
    89   45  111 1    
    90   46  112 1    
    91   46  113 1    
    92   46  114 1    
    93   47   48 2    
    94   47   49 am   BACKBONE|DICT|INTERRES
    95   49   50 1    
    96   49  115 1    
    97   50   51 1    
    98   50   52 1    
    99   50  116 1    
   100   51  117 1    
   101   51  118 1    
   102   51  119 1    
   103   52   53 2    
   104   52   54 am   BACKBONE|DICT|INTERRES
   105   54   55 1    
   106   54  120 1    
   107   55   56 1    
   108   55   57 1    
   109   55  121 1    
   110   56  122 1    
   111   56  123 1    
   112   56  124 1    
   113   57   58 2    
   114   57   59 am   BACKBONE|DICT|INTERRES
   115   59   60 1    
   116   59  125 1    
   117   60   61 1    
   118   60   62 1    
   119   60  126 1    
   120   61  127 1    
   121   61  128 1    
   122   61  129 1    
   123   62   63 2    
   124   62   64 am   BACKBONE|DICT|INTERRES
   125   64   65 1    
   126   64  130 1    
   127   65   66 1    
   128   65   69 1    
   129   65  131 1    
   130   66   67 am   BACKBONE|DICT|INTERRES
   131   66   68 2    
   132   67  132 1    
   133   67  133 1    
   134   69   70 1    
   135   69  134 1    
   136   69  135 1    
   137   70   71 1    
   138   71  136 1    
   139   71  137 1    
@<TRIPOS>SUBSTRUCTURE
     1 UNK         1 GROUP             0       ****    0 ROOT    
