@<TRIPOS>MOLECULE
3R136
137   139    1
SMALL
USER_CHARGES


@<TRIPOS>ATOM
      1 CA         30.2937   22.5058    3.8761 C.3       0 UNK        -0.1979 
      2 C          29.2372   22.1036    2.8604 C.2       0 UNK         0.4864 
      3 O          28.0519   22.3670    3.0664 O.2       0 UNK        -0.5359 
      4 N          29.6799   21.4607    1.7732 N.am      1 UNK        -0.4318 
      5 CA         28.8766   20.7451    0.7746 C.3       1 UNK         0.0824 
      6 C6         29.7790   20.0914   -0.3043 C.3       12 UNK        -0.0944 
      7 S7         30.6488   21.2674   -1.4050 S.3       12 UNK        -0.2672 
      8 C8         32.2251   21.5872   -0.5375 C.3       12 UNK         0.0333 
      9 C9         32.3803   23.0345   -0.0675 C.ar      12 UNK        -0.0807 
     10 C10        32.9546   23.3096    1.1799 C.ar      12 UNK        -0.0894 
     11 C11        33.1877   24.6301    1.5819 C.ar      12 UNK        -0.0804 
     12 C12        32.8273   25.6828    0.7362 C.ar      12 UNK        -0.0824 
     13 C13        32.2608   25.4253   -0.5140 C.ar      12 UNK        -0.0762 
     14 C14        32.0384   24.1022   -0.9077 C.ar      12 UNK        -0.0782 
     15 C15        31.9513   26.5669   -1.4717 C.3       12 UNK         0.0230 
     16 S16        30.2310   27.1352   -1.3301 S.3       12 UNK        -0.2608 
     17 C17        30.3671   28.4556   -0.0822 C.3       12 UNK        -0.0989 
     18 CA         29.0868   28.5503    0.7868 C.3       5 UNK         0.0716 
     19 N          28.8996   27.3840    1.6556 N.am      5 UNK        -0.4135 
     20 C          29.5401   27.1200    2.8076 C.2       4 UNK         0.5031 
     21 O          30.4708   27.8019    3.2462 O.2       4 UNK        -0.5229 
     22 CA         29.0624   25.9065    3.6314 C.3       4 UNK         0.0329 
     23 CB         29.0357   26.2121    5.1404 C.3       4 UNK        -0.2001 
     24 N          27.7833   25.3196    3.2139 N.am      4 UNK        -0.4303 
     25 C          26.5830   25.9156    3.1560 C.2       3 UNK         0.5044 
     26 O          26.3713   27.0795    3.5030 O.2       3 UNK        -0.5152 
     27 CA         25.4569   25.0734    2.5215 C.3       3 UNK         0.0319 
     28 CB         24.2202   25.9179    2.1483 C.3       3 UNK        -0.2001 
     29 N          25.9166   24.2964    1.3582 N.am      3 UNK        -0.4354 
     30 C          26.5350   24.7705    0.2641 C.2       2 UNK         0.4964 
     31 O          26.8140   25.9587    0.0933 O.2       2 UNK        -0.5047 
     32 CA         26.9630   23.7226   -0.7718 C.3       2 UNK         0.0288 
     33 CB         27.5827   24.3416   -2.0379 C.3       2 UNK        -0.2113 
     34 N          27.9383   22.8178   -0.1658 N.am      2 UNK        -0.4145 
     35 C          27.7048   21.5398    0.1552 C.2       1 UNK         0.5006 
     36 O          26.6172   20.9824   -0.0060 O.2       1 UNK        -0.5103 
     37 C          29.0028   29.8573    1.6014 C.2       5 UNK         0.5055 
     38 O          29.9413   30.6554    1.5832 O.2       5 UNK        -0.5220 
     39 N          27.9064   30.0173    2.3584 N.am      6 UNK        -0.4450 
     40 CA         27.7000   31.0609    3.3721 C.3       6 UNK         0.0367 
     41 CB         26.3146   30.8719    4.0092 C.3       6 UNK        -0.1929 
     42 C          27.8778   32.5130    2.8908 C.2       6 UNK         0.5070 
     43 O          28.2110   33.3791    3.6991 O.2       6 UNK        -0.5237 
     44 N          27.6677   32.7536    1.5915 N.am      7 UNK        -0.4739 
     45 CA         27.8600   34.0520    0.9453 C.3       7 UNK         0.0276 
     46 CB         27.0254   34.0839   -0.3465 C.3       7 UNK        -0.1927 
     47 C          29.3331   34.3900    0.6385 C.2       7 UNK         0.5013 
     48 O          29.6052   35.5454    0.3076 O.2       7 UNK        -0.5193 
     49 N          30.2433   33.4059    0.7086 N.am      8 UNK        -0.4253 
     50 CA         31.6389   33.5475    0.2811 C.3       8 UNK         0.0242 
     51 CB         31.8264   32.8566   -1.0814 C.3       8 UNK        -0.2000 
     52 C          32.6458   33.0044    1.3044 C.2       8 UNK         0.4948 
     53 O          33.6229   33.6948    1.5980 O.2       8 UNK        -0.5275 
     54 N          32.4202   31.7825    1.8022 N.am      9 UNK        -0.4246 
     55 CA         33.3308   31.0668    2.6964 C.3       9 UNK         0.0261 
     56 CB         33.5698   29.6400    2.1682 C.3       9 UNK        -0.1959 
     57 C          32.7814   31.0309    4.1256 C.2       9 UNK         0.5033 
     58 O          33.4702   31.4863    5.0393 O.2       9 UNK        -0.5390 
     59 N          31.5691   30.4755    4.2893 N.am      10 UNK        -0.4215 
     60 CA         30.9059   30.1726    5.5655 C.3       10 UNK         0.0240 
     61 CB         30.4951   31.4691    6.2969 C.3       10 UNK        -0.1982 
     62 C          31.7511   29.2231    6.4384 C.2       10 UNK         0.4970 
     63 O          32.0062   29.5141    7.6082 O.2       10 UNK        -0.4916 
     64 N          32.1903   28.1124    5.8332 N.am      11 UNK        -0.4279 
     65 CA         33.0851   27.1075    6.4343 C.3       11 UNK         0.1003 
     66 C          32.4728   26.2111    7.5549 C.2       11 UNK         0.5709 
     67 N          31.2134   26.3768    7.9397 N.am      11 UNK        -0.7358 
     68 O          33.1651   25.3580    8.1058 O.2       11 UNK        -0.4999 
     69 C69        33.8273   26.2876    5.3443 C.3       12 UNK        -0.0954 
     70 S70        32.7158   25.4112    4.1946 S.3       12 UNK        -0.2268 
     71 C71        33.8913   24.9331    2.8963 C.3       12 UNK         0.0203 
     72 H72        30.7474   21.6204    4.3205 H         1 UNK         0.0888 
     73 H73        31.0791   23.0921    3.4029 H         1 UNK         0.0888 
     74 H74        29.8586   23.0968    4.6816 H         1 UNK         0.0888 
     75 H75        30.6758   21.3381    1.6711 H         1 UNK         0.3017 
     76 H76        28.4081   19.9272    1.3262 H         1 UNK         0.0873 
     77 H77        29.1753   19.4379   -0.9371 H         1 UNK         0.0745 
     78 H78        30.5089   19.4303    0.1655 H         1 UNK         0.0745 
     79 H79        32.3407   20.8949    0.2970 H         1 UNK         0.0705 
     80 H80        33.0420   21.3658   -1.2254 H         1 UNK         0.0705 
     81 H81        33.2560   22.4964    1.8261 H         1 UNK         0.1334 
     82 H82        33.0183   26.7020    1.0425 H         1 UNK         0.1417 
     83 H83        31.6221   23.9045   -1.8862 H         1 UNK         0.1562 
     84 H84        32.1210   26.2362   -2.4975 H         1 UNK         0.0748 
     85 H85        32.6358   27.4017   -1.3122 H         1 UNK         0.0748 
     86 H86        30.5477   29.3882   -0.6201 H         1 UNK         0.0940 
     87 H87        31.2410   28.2860    0.5449 H         1 UNK         0.0940 
     88 H88        28.2280   28.5708    0.1138 H         1 UNK         0.0703 
     89 H89        28.1567   26.7593    1.3596 H         1 UNK         0.3081 
     90 H90        29.8159   25.1432    3.4555 H         1 UNK         0.0719 
     91 H91        30.0300   26.4750    5.4917 H         1 UNK         0.0809 
     92 H92        28.3726   27.0454    5.3747 H         1 UNK         0.0809 
     93 H93        28.7112   25.3468    5.7181 H         1 UNK         0.0809 
     94 H94        27.8221   24.3415    2.9397 H         1 UNK         0.2990 
     95 H95        25.1524   24.3501    3.2794 H         1 UNK         0.0690 
     96 H96        23.4286   25.2978    1.7280 H         1 UNK         0.0788 
     97 H97        24.4642   26.6909    1.4186 H         1 UNK         0.0788 
     98 H98        23.8077   26.4175    3.0259 H         1 UNK         0.0788 
     99 H99        25.7908   23.2948    1.4271 H         1 UNK         0.2993 
    100 H100       26.0618   23.1845   -1.0739 H         1 UNK         0.0949 
    101 H101       27.8010   23.5763   -2.7829 H         1 UNK         0.0767 
    102 H102       26.9041   25.0607   -2.4987 H         1 UNK         0.0767 
    103 H103       28.5137   24.8617   -1.8164 H         1 UNK         0.0767 
    104 H104       28.8576   23.1950    0.0170 H         1 UNK         0.3013 
    105 H105       27.2123   29.2813    2.3391 H         1 UNK         0.3121 
    106 H106       28.4478   30.8979    4.1468 H         1 UNK         0.0774 
    107 H107       26.1410   31.6081    4.7955 H         1 UNK         0.0815 
    108 H108       25.5156   30.9830    3.2753 H         1 UNK         0.0815 
    109 H109       26.2181   29.8858    4.4648 H         1 UNK         0.0815 
    110 H110       27.3943   31.9822    1.0003 H         1 UNK         0.2987 
    111 H111       27.4842   34.8322    1.6113 H         1 UNK         0.0949 
    112 H112       27.3554   33.3274   -1.0596 H         1 UNK         0.0806 
    113 H113       25.9681   33.9153   -0.1410 H         1 UNK         0.0806 
    114 H114       27.1052   35.0533   -0.8407 H         1 UNK         0.0806 
    115 H115       29.9522   32.4884    1.0339 H         1 UNK         0.3010 
    116 H116       31.8836   34.6038    0.1496 H         1 UNK         0.0829 
    117 H117       31.2020   33.3180   -1.8467 H         1 UNK         0.0813 
    118 H118       32.8608   32.9310   -1.4200 H         1 UNK         0.0813 
    119 H119       31.5716   31.7970   -1.0367 H         1 UNK         0.0813 
    120 H120       31.5453   31.3121    1.5743 H         1 UNK         0.3038 
    121 H121       34.3007   31.5682    2.7270 H         1 UNK         0.0769 
    122 H122       34.2873   29.1093    2.7956 H         1 UNK         0.0811 
    123 H123       33.9728   29.6544    1.1555 H         1 UNK         0.0811 
    124 H124       32.6559   29.0481    2.1567 H         1 UNK         0.0811 
    125 H125       31.1054   30.1045    3.4677 H         1 UNK         0.3204 
    126 H126       29.9956   29.6239    5.3209 H         1 UNK         0.0748 
    127 H127       29.8887   31.2449    7.1752 H         1 UNK         0.0771 
    128 H128       31.3624   32.0353    6.6379 H         1 UNK         0.0771 
    129 H129       29.9064   32.1224    5.6535 H         1 UNK         0.0771 
    130 H130       31.8880   27.9238    4.8835 H         1 UNK         0.2980 
    131 H131       33.8592   27.6755    6.9536 H         1 UNK         0.0545 
    132 H132       30.8429   25.7927    8.6722 H         1 UNK         0.3459 
    133 H133       30.6476   27.1040    7.5365 H         1 UNK         0.3459 
    134 H134       34.5136   25.5660    5.7909 H         1 UNK         0.0616 
    135 H135       34.4518   26.9662    4.7614 H         1 UNK         0.0616 
    136 H136       34.4668   24.0706    3.2360 H         1 UNK         0.0634 
    137 H137       34.6102   25.7381    2.7361 H         1 UNK         0.0634 
@<TRIPOS>BOND
     1    1    2 1    
     2    1   72 1    
     3    1   73 1    
     4    1   74 1    
     5    2    3 2    
     6    2    4 am   BACKBONE|DICT|INTERRES
     7    4    5 1    
     8    4   75 1    
     9    5    6 1    
    10    5   35 1    
    11    5   76 1    
    12    6    7 1    
    13    6   77 1    
    14    6   78 1    
    15    7    8 1    
    16    8    9 1    
    17    8   79 1    
    18    8   80 1    
    19    9   10 ar   
    20    9   14 ar   
    21   10   11 ar   
    22   10   81 1    
    23   11   12 ar   
    24   11   71 1    
    25   12   13 ar   
    26   12   82 1    
    27   13   14 ar   
    28   13   15 1    
    29   14   83 1    
    30   15   16 1    
    31   15   84 1    
    32   15   85 1    
    33   16   17 1    
    34   17   18 1    
    35   17   86 1    
    36   17   87 1    
    37   18   19 1    
    38   18   37 1    
    39   18   88 1    
    40   19   20 am   BACKBONE|DICT|INTERRES
    41   19   89 1    
    42   20   21 2    
    43   20   22 1    
    44   22   23 1    
    45   22   24 1    
    46   22   90 1    
    47   23   91 1    
    48   23   92 1    
    49   23   93 1    
    50   24   25 am   BACKBONE|DICT|INTERRES
    51   24   94 1    
    52   25   26 2    
    53   25   27 1    
    54   27   28 1    
    55   27   29 1    
    56   27   95 1    
    57   28   96 1    
    58   28   97 1    
    59   28   98 1    
    60   29   30 am   BACKBONE|DICT|INTERRES
    61   29   99 1    
    62   30   31 2    
    63   30   32 1    
    64   32   33 1    
    65   32   34 1    
    66   32  100 1    
    67   33  101 1    
    68   33  102 1    
    69   33  103 1    
    70   34   35 am   BACKBONE|DICT|INTERRES
    71   34  104 1    
    72   35   36 2    
    73   37   38 2    
    74   37   39 am   BACKBONE|DICT|INTERRES
    75   39   40 1    
    76   39  105 1    
    77   40   41 1    
    78   40   42 1    
    79   40  106 1    
    80   41  107 1    
    81   41  108 1    
    82   41  109 1    
    83   42   43 2    
    84   42   44 am   BACKBONE|DICT|INTERRES
    85   44   45 1    
    86   44  110 1    
    87   45   46 1    
    88   45   47 1    
    89   45  111 1    
    90   46  112 1    
    91   46  113 1    
    92   46  114 1    
    93   47   48 2    
    94   47   49 am   BACKBONE|DICT|INTERRES
    95   49   50 1    
    96   49  115 1    
    97   50   51 1    
    98   50   52 1    
    99   50  116 1    
   100   51  117 1    
   101   51  118 1    
   102   51  119 1    
   103   52   53 2    
   104   52   54 am   BACKBONE|DICT|INTERRES
   105   54   55 1    
   106   54  120 1    
   107   55   56 1    
   108   55   57 1    
   109   55  121 1    
   110   56  122 1    
   111   56  123 1    
   112   56  124 1    
   113   57   58 2    
   114   57   59 am   BACKBONE|DICT|INTERRES
   115   59   60 1    
   116   59  125 1    
   117   60   61 1    
   118   60   62 1    
   119   60  126 1    
   120   61  127 1    
   121   61  128 1    
   122   61  129 1    
   123   62   63 2    
   124   62   64 am   BACKBONE|DICT|INTERRES
   125   64   65 1    
   126   64  130 1    
   127   65   66 1    
   128   65   69 1    
   129   65  131 1    
   130   66   67 am   BACKBONE|DICT|INTERRES
   131   66   68 2    
   132   67  132 1    
   133   67  133 1    
   134   69   70 1    
   135   69  134 1    
   136   69  135 1    
   137   70   71 1    
   138   71  136 1    
   139   71  137 1    
@<TRIPOS>SUBSTRUCTURE
     1 UNK         1 GROUP             0       ****    0 ROOT    
