@<TRIPOS>MOLECULE
3R136
137   139    1
SMALL
USER_CHARGES


@<TRIPOS>ATOM
      1 CA         26.0301   26.2827   -1.3247 C.3       0 UNK        -0.1979 
      2 C          26.9431   25.5680   -0.3405 C.2       0 UNK         0.4864 
      3 O          26.8309   25.7946    0.8635 O.2       0 UNK        -0.5359 
      4 N          27.8459   24.7159   -0.8486 N.am      1 UNK        -0.4318 
      5 CA         28.8172   23.9056   -0.0983 C.3       1 UNK         0.0824 
      6 C6         29.6268   23.0140   -1.0839 C.3       12 UNK        -0.0944 
      7 S7         30.7204   21.7467   -0.3449 S.3       12 UNK        -0.2672 
      8 C8         32.3531   22.5537   -0.3957 C.3       12 UNK         0.0333 
      9 C9         32.4625   23.7217    0.5763 C.ar      12 UNK        -0.0807 
     10 C10        32.1873   23.5396    1.9362 C.ar      12 UNK        -0.0894 
     11 C11        32.2852   24.6097    2.8294 C.ar      12 UNK        -0.0804 
     12 C12        32.6920   25.8623    2.3604 C.ar      12 UNK        -0.0824 
     13 C13        33.0026   26.0496    1.0109 C.ar      12 UNK        -0.0762 
     14 C14        32.8744   24.9786    0.1211 C.ar      12 UNK        -0.0782 
     15 C15        33.5185   27.3953    0.5216 C.3       12 UNK         0.0230 
     16 S16        32.2888   28.2929   -0.4728 S.3       12 UNK        -0.2608 
     17 C17        31.0487   28.7691    0.7793 C.3       12 UNK        -0.0989 
     18 CA         29.6530   28.1363    0.5376 C.3       5 UNK         0.0716 
     19 N          28.7989   28.2504    1.7106 N.am      5 UNK        -0.4135 
     20 C          28.7874   27.4431    2.7708 C.2       4 UNK         0.5031 
     21 O          29.5838   26.5214    2.9437 O.2       4 UNK        -0.5229 
     22 CA         27.6536   27.6384    3.7844 C.3       4 UNK         0.0329 
     23 CB         26.8659   28.9580    3.6369 C.3       4 UNK        -0.2001 
     24 N          26.7731   26.4938    3.6066 N.am      4 UNK        -0.4303 
     25 C          25.9815   25.9400    4.5284 C.2       3 UNK         0.5044 
     26 O          25.7830   26.4112    5.6487 O.2       3 UNK        -0.5152 
     27 CA         25.3466   24.5941    4.1364 C.3       3 UNK         0.0319 
     28 CB         24.1817   24.7917    3.1525 C.3       3 UNK        -0.2001 
     29 N          26.3449   23.6936    3.5508 N.am      3 UNK        -0.4354 
     30 C          27.3360   23.1155    4.2441 C.2       2 UNK         0.4964 
     31 O          27.4200   23.1596    5.4718 O.2       2 UNK        -0.5047 
     32 CA         28.4464   22.3960    3.4593 C.3       2 UNK         0.0288 
     33 CB         28.1332   20.8986    3.2676 C.3       2 UNK        -0.2113 
     34 N          28.8195   23.0559    2.1999 N.am      2 UNK        -0.4145 
     35 C          28.1468   23.1002    1.0411 C.2       1 UNK         0.5006 
     36 O          27.0520   22.5624    0.8538 O.2       1 UNK        -0.5103 
     37 C          28.8876   28.8034   -0.6219 C.2       5 UNK         0.5055 
     38 O          27.8602   29.4507   -0.3941 O.2       5 UNK        -0.5220 
     39 N          29.4104   28.6569   -1.8460 N.am      6 UNK        -0.4450 
     40 CA         29.0214   29.4727   -3.0014 C.3       6 UNK         0.0367 
     41 CB         29.5267   28.8046   -4.2899 C.3       6 UNK        -0.1929 
     42 C          29.5572   30.9157   -2.8884 C.2       6 UNK         0.5070 
     43 O          28.9472   31.8369   -3.4319 O.2       6 UNK        -0.5237 
     44 N          30.6788   31.0794   -2.1732 N.am      7 UNK        -0.4739 
     45 CA         31.2474   32.3580   -1.7475 C.3       7 UNK         0.0276 
     46 CB         32.7670   32.1654   -1.5762 C.3       7 UNK        -0.1927 
     47 C          30.5923   32.8421   -0.4370 C.2       7 UNK         0.5013 
     48 O          29.6836   32.1936    0.0828 O.2       7 UNK        -0.5193 
     49 N          31.0917   33.9615    0.1046 N.am      8 UNK        -0.4253 
     50 CA         30.6690   34.5264    1.3948 C.3       8 UNK         0.0242 
     51 CB         31.1602   35.9821    1.4811 C.3       8 UNK        -0.2000 
     52 C          31.1375   33.7219    2.6289 C.2       8 UNK         0.4948 
     53 O          30.7004   34.0228    3.7411 O.2       8 UNK        -0.5275 
     54 N          32.0324   32.7462    2.4238 N.am      9 UNK        -0.4246 
     55 CA         32.5663   31.8374    3.4397 C.3       9 UNK         0.0261 
     56 CB         33.7714   31.0971    2.8305 C.3       9 UNK        -0.1959 
     57 C          31.5239   30.8258    3.9548 C.2       9 UNK         0.5033 
     58 O          30.4790   30.6290    3.3329 O.2       9 UNK        -0.5390 
     59 N          31.8626   30.1580    5.0609 N.am      10 UNK        -0.4215 
     60 CA         31.1408   29.0249    5.6308 C.3       10 UNK         0.0240 
     61 CB         29.9122   29.5074    6.4251 C.3       10 UNK        -0.1982 
     62 C          32.1147   28.2486    6.5239 C.2       10 UNK         0.4970 
     63 O          33.0908   28.8310    7.0050 O.2       10 UNK        -0.4916 
     64 N          31.8284   26.9599    6.7331 N.am      11 UNK        -0.4279 
     65 CA         32.6309   26.0521    7.5728 C.3       11 UNK         0.1003 
     66 C          32.2416   26.0755    9.0803 C.2       11 UNK         0.5709 
     67 N          31.2150   26.8085    9.4961 N.am      11 UNK        -0.7358 
     68 O          32.8948   25.4264    9.8941 O.2       11 UNK        -0.4999 
     69 C69        32.6360   24.6062    7.0065 C.3       12 UNK        -0.0954 
     70 S70        33.4075   24.5147    5.3559 S.3       12 UNK        -0.2268 
     71 C71        31.9338   24.4264    4.2972 C.3       12 UNK         0.0203 
     72 H72        26.3141   26.0920   -2.3594 H         1 UNK         0.0888 
     73 H73        25.0011   25.9527   -1.1856 H         1 UNK         0.0888 
     74 H74        26.0675   27.3588   -1.1571 H         1 UNK         0.0888 
     75 H75        27.8510   24.5668   -1.8470 H         1 UNK         0.3017 
     76 H76        29.5123   24.6094    0.3648 H         1 UNK         0.0873 
     77 H77        30.2189   23.6459   -1.7480 H         1 UNK         0.0745 
     78 H78        28.9353   22.4744   -1.7337 H         1 UNK         0.0745 
     79 H79        32.5643   22.8686   -1.4188 H         1 UNK         0.0705 
     80 H80        33.1144   21.8160   -0.1388 H         1 UNK         0.0705 
     81 H81        31.8875   22.5638    2.2941 H         1 UNK         0.1334 
     82 H82        32.7744   26.6873    3.0546 H         1 UNK         0.1417 
     83 H83        33.1118   25.1252   -0.9240 H         1 UNK         0.1562 
     84 H84        34.4087   27.2343   -0.0882 H         1 UNK         0.0748 
     85 H85        33.8363   28.0200    1.3578 H         1 UNK         0.0748 
     86 H86        30.9796   29.8579    0.8137 H         1 UNK         0.0940 
     87 H87        31.4178   28.4741    1.7622 H         1 UNK         0.0940 
     88 H88        29.7671   27.0763    0.3017 H         1 UNK         0.0703 
     89 H89        28.0754   28.9513    1.6041 H         1 UNK         0.3081 
     90 H90        28.1001   27.6004    4.7797 H         1 UNK         0.0719 
     91 H91        27.5322   29.8207    3.6895 H         1 UNK         0.0809 
     92 H92        26.3216   29.0082    2.6929 H         1 UNK         0.0809 
     93 H93        26.1376   29.0684    4.4404 H         1 UNK         0.0809 
     94 H94        26.8483   26.0450    2.6933 H         1 UNK         0.2990 
     95 H95        24.9511   24.1300    5.0425 H         1 UNK         0.0690 
     96 H96        23.6922   23.8447    2.9247 H         1 UNK         0.0788 
     97 H97        24.5127   25.2314    2.2110 H         1 UNK         0.0788 
     98 H98        23.4251   25.4547    3.5741 H         1 UNK         0.0788 
     99 H99        26.3452   23.5865    2.5423 H         1 UNK         0.2993 
    100 H100       29.3383   22.4523    4.0839 H         1 UNK         0.0949 
    101 H101       27.2096   20.7389    2.7109 H         1 UNK         0.0767 
    102 H102       28.9384   20.3902    2.7368 H         1 UNK         0.0767 
    103 H103       28.0154   20.4027    4.2319 H         1 UNK         0.0767 
    104 H104       29.6810   23.5843    2.2447 H         1 UNK         0.3013 
    105 H105       30.2523   28.1043   -1.9419 H         1 UNK         0.3121 
    106 H106       27.9311   29.5231   -3.0445 H         1 UNK         0.0774 
    107 H107       29.2304   29.3805   -5.1677 H         1 UNK         0.0815 
    108 H108       30.6144   28.7241   -4.3053 H         1 UNK         0.0815 
    109 H109       29.1128   27.8028   -4.4062 H         1 UNK         0.0815 
    110 H110       31.0827   30.2584   -1.7464 H         1 UNK         0.2987 
    111 H111       31.0662   33.1111   -2.5177 H         1 UNK         0.0949 
    112 H112       33.2186   31.7726   -2.4877 H         1 UNK         0.0806 
    113 H113       33.2718   33.1068   -1.3573 H         1 UNK         0.0806 
    114 H114       32.9997   31.4711   -0.7675 H         1 UNK         0.0806 
    115 H115       31.8318   34.4504   -0.3789 H         1 UNK         0.3010 
    116 H116       29.5770   34.5347    1.4191 H         1 UNK         0.0829 
    117 H117       30.7720   36.5827    0.6583 H         1 UNK         0.0813 
    118 H118       30.8269   36.4537    2.4067 H         1 UNK         0.0813 
    119 H119       32.2490   36.0428    1.4594 H         1 UNK         0.0813 
    120 H120       32.3067   32.5633    1.4718 H         1 UNK         0.3038 
    121 H121       32.9071   32.4371    4.2864 H         1 UNK         0.0769 
    122 H122       34.2417   30.4331    3.5569 H         1 UNK         0.0811 
    123 H123       34.5383   31.7957    2.4953 H         1 UNK         0.0811 
    124 H124       33.4779   30.4869    1.9751 H         1 UNK         0.0811 
    125 H125       32.7479   30.3440    5.5184 H         1 UNK         0.3204 
    126 H126       30.8217   28.3685    4.8186 H         1 UNK         0.0748 
    127 H127       29.3672   28.6683    6.8588 H         1 UNK         0.0771 
    128 H128       30.1980   30.1717    7.2416 H         1 UNK         0.0771 
    129 H129       29.2129   30.0473    5.7863 H         1 UNK         0.0771 
    130 H130       30.9953   26.5638    6.3251 H         1 UNK         0.2980 
    131 H131       33.6661   26.3986    7.5502 H         1 UNK         0.0545 
    132 H132       30.9821   26.8163   10.4766 H         1 UNK         0.3459 
    133 H133       30.6766   27.3557    8.8454 H         1 UNK         0.3459 
    134 H134       33.2068   23.9410    7.6570 H         1 UNK         0.0616 
    135 H135       31.6241   24.1985    6.9708 H         1 UNK         0.0616 
    136 H136       31.4419   23.4679    4.4635 H         1 UNK         0.0634 
    137 H137       31.2216   25.1972    4.5910 H         1 UNK         0.0634 
@<TRIPOS>BOND
     1    1    2 1    
     2    1   72 1    
     3    1   73 1    
     4    1   74 1    
     5    2    3 2    
     6    2    4 am   BACKBONE|DICT|INTERRES
     7    4    5 1    
     8    4   75 1    
     9    5    6 1    
    10    5   35 1    
    11    5   76 1    
    12    6    7 1    
    13    6   77 1    
    14    6   78 1    
    15    7    8 1    
    16    8    9 1    
    17    8   79 1    
    18    8   80 1    
    19    9   10 ar   
    20    9   14 ar   
    21   10   11 ar   
    22   10   81 1    
    23   11   12 ar   
    24   11   71 1    
    25   12   13 ar   
    26   12   82 1    
    27   13   14 ar   
    28   13   15 1    
    29   14   83 1    
    30   15   16 1    
    31   15   84 1    
    32   15   85 1    
    33   16   17 1    
    34   17   18 1    
    35   17   86 1    
    36   17   87 1    
    37   18   19 1    
    38   18   37 1    
    39   18   88 1    
    40   19   20 am   BACKBONE|DICT|INTERRES
    41   19   89 1    
    42   20   21 2    
    43   20   22 1    
    44   22   23 1    
    45   22   24 1    
    46   22   90 1    
    47   23   91 1    
    48   23   92 1    
    49   23   93 1    
    50   24   25 am   BACKBONE|DICT|INTERRES
    51   24   94 1    
    52   25   26 2    
    53   25   27 1    
    54   27   28 1    
    55   27   29 1    
    56   27   95 1    
    57   28   96 1    
    58   28   97 1    
    59   28   98 1    
    60   29   30 am   BACKBONE|DICT|INTERRES
    61   29   99 1    
    62   30   31 2    
    63   30   32 1    
    64   32   33 1    
    65   32   34 1    
    66   32  100 1    
    67   33  101 1    
    68   33  102 1    
    69   33  103 1    
    70   34   35 am   BACKBONE|DICT|INTERRES
    71   34  104 1    
    72   35   36 2    
    73   37   38 2    
    74   37   39 am   BACKBONE|DICT|INTERRES
    75   39   40 1    
    76   39  105 1    
    77   40   41 1    
    78   40   42 1    
    79   40  106 1    
    80   41  107 1    
    81   41  108 1    
    82   41  109 1    
    83   42   43 2    
    84   42   44 am   BACKBONE|DICT|INTERRES
    85   44   45 1    
    86   44  110 1    
    87   45   46 1    
    88   45   47 1    
    89   45  111 1    
    90   46  112 1    
    91   46  113 1    
    92   46  114 1    
    93   47   48 2    
    94   47   49 am   BACKBONE|DICT|INTERRES
    95   49   50 1    
    96   49  115 1    
    97   50   51 1    
    98   50   52 1    
    99   50  116 1    
   100   51  117 1    
   101   51  118 1    
   102   51  119 1    
   103   52   53 2    
   104   52   54 am   BACKBONE|DICT|INTERRES
   105   54   55 1    
   106   54  120 1    
   107   55   56 1    
   108   55   57 1    
   109   55  121 1    
   110   56  122 1    
   111   56  123 1    
   112   56  124 1    
   113   57   58 2    
   114   57   59 am   BACKBONE|DICT|INTERRES
   115   59   60 1    
   116   59  125 1    
   117   60   61 1    
   118   60   62 1    
   119   60  126 1    
   120   61  127 1    
   121   61  128 1    
   122   61  129 1    
   123   62   63 2    
   124   62   64 am   BACKBONE|DICT|INTERRES
   125   64   65 1    
   126   64  130 1    
   127   65   66 1    
   128   65   69 1    
   129   65  131 1    
   130   66   67 am   BACKBONE|DICT|INTERRES
   131   66   68 2    
   132   67  132 1    
   133   67  133 1    
   134   69   70 1    
   135   69  134 1    
   136   69  135 1    
   137   70   71 1    
   138   71  136 1    
   139   71  137 1    
@<TRIPOS>SUBSTRUCTURE
     1 UNK         1 GROUP             0       ****    0 ROOT    
