@<TRIPOS>MOLECULE
3R136
137   139    1
SMALL
USER_CHARGES


@<TRIPOS>ATOM
      1 CA         27.6657   22.4611   -0.5930 C.3       0 UNK        -0.1979 
      2 C          28.4407   23.3239    0.3900 C.2       0 UNK         0.4864 
      3 O          28.2681   24.5452    0.3964 O.2       0 UNK        -0.5359 
      4 N          29.2812   22.6976    1.2251 N.am      1 UNK        -0.4318 
      5 CA         30.1148   23.3423    2.2445 C.3       1 UNK         0.0824 
      6 C6         31.0479   22.3272    2.9569 C.3       12 UNK        -0.0944 
      7 S7         32.1921   21.3093    1.9459 S.3       12 UNK        -0.2672 
      8 C8         32.3322   22.0785    0.2903 C.3       12 UNK         0.0333 
      9 C9         32.8843   23.5010    0.2860 C.ar      12 UNK        -0.0807 
     10 C10        33.8789   23.9034    1.1828 C.ar      12 UNK        -0.0894 
     11 C11        34.3588   25.2152    1.1731 C.ar      12 UNK        -0.0804 
     12 C12        33.8542   26.1282    0.2420 C.ar      12 UNK        -0.0824 
     13 C13        32.8806   25.7330   -0.6813 C.ar      12 UNK        -0.0762 
     14 C14        32.4030   24.4183   -0.6527 C.ar      12 UNK        -0.0782 
     15 C15        32.3773   26.7136   -1.7350 C.3       12 UNK         0.0230 
     16 S16        30.5598   26.8325   -1.7860 S.3       12 UNK        -0.2608 
     17 C17        30.2167   27.6323   -0.1859 C.3       12 UNK        -0.0989 
     18 CA         28.8061   28.2730   -0.1520 C.3       5 UNK         0.0716 
     19 N          27.7530   27.2694   -0.3409 N.am      5 UNK        -0.4135 
     20 C          26.5213   27.5109   -0.8111 C.2       4 UNK         0.5031 
     21 O          26.1298   28.6273   -1.1557 O.2       4 UNK        -0.5229 
     22 CA         25.5496   26.3268   -0.8481 C.3       4 UNK         0.0329 
     23 CB         25.8855   25.3800   -2.0124 C.3       4 UNK        -0.2001 
     24 N          25.6086   25.6030    0.4224 N.am      4 UNK        -0.4303 
     25 C          24.6674   25.6517    1.3740 C.2       3 UNK         0.5044 
     26 O          23.5917   26.2392    1.2533 O.2       3 UNK        -0.5152 
     27 CA         24.9797   24.9247    2.6931 C.3       3 UNK         0.0319 
     28 CB         24.7189   23.4159    2.5560 C.3       3 UNK        -0.2001 
     29 N          26.3500   25.1377    3.1622 N.am      3 UNK        -0.4354 
     30 C          26.8669   26.3041    3.5701 C.2       2 UNK         0.4964 
     31 O          26.2192   27.3486    3.6178 O.2       2 UNK        -0.5047 
     32 CA         28.3505   26.3298    3.9978 C.3       2 UNK         0.0288 
     33 CB         28.4934   26.1795    5.5241 C.3       2 UNK        -0.2113 
     34 N          29.2321   25.4002    3.2684 N.am      2 UNK        -0.4145 
     35 C          29.2129   24.0581    3.2712 C.2       1 UNK         0.5006 
     36 O          28.4602   23.3830    3.9766 O.2       1 UNK        -0.5103 
     37 C          28.5545   29.0804    1.1403 C.2       5 UNK         0.5055 
     38 O          29.3863   29.0694    2.0470 O.2       5 UNK        -0.5220 
     39 N          27.3878   29.7322    1.2155 N.am      6 UNK        -0.4450 
     40 CA         26.9120   30.4841    2.3789 C.3       6 UNK         0.0367 
     41 CB         25.3777   30.5669    2.3168 C.3       6 UNK        -0.1929 
     42 C          27.5231   31.8913    2.4947 C.2       6 UNK         0.5070 
     43 O          27.4321   32.4960    3.5635 O.2       6 UNK        -0.5237 
     44 N          28.1118   32.3962    1.4049 N.am      7 UNK        -0.4739 
     45 CA         28.8163   33.6739    1.3395 C.3       7 UNK         0.0276 
     46 CB         28.1786   34.5454    0.2444 C.3       7 UNK        -0.1927 
     47 C          30.2907   33.4045    1.0197 C.2       7 UNK         0.5013 
     48 O          30.5828   32.5045    0.2278 O.2       7 UNK        -0.5193 
     49 N          31.1804   34.2011    1.6307 N.am      8 UNK        -0.4253 
     50 CA         32.6462   34.1681    1.4992 C.3       8 UNK         0.0242 
     51 CB         33.0739   34.5714    0.0711 C.3       8 UNK        -0.2000 
     52 C          33.3030   32.8468    1.9582 C.2       8 UNK         0.4948 
     53 O          34.4311   32.5573    1.5547 O.2       8 UNK        -0.5275 
     54 N          32.6061   32.0793    2.8031 N.am      9 UNK        -0.4246 
     55 CA         33.0154   30.7870    3.3401 C.3       9 UNK         0.0261 
     56 CB         32.9064   29.7037    2.2482 C.3       9 UNK        -0.1959 
     57 C          32.1193   30.4569    4.5405 C.2       9 UNK         0.5033 
     58 O          31.0417   31.0422    4.6807 O.2       9 UNK        -0.5390 
     59 N          32.5828   29.5232    5.3766 N.am      10 UNK        -0.4215 
     60 CA         31.8781   28.9924    6.5457 C.3       10 UNK         0.0240 
     61 CB         32.0008   29.9632    7.7388 C.3       10 UNK        -0.1982 
     62 C          32.4255   27.5885    6.8458 C.2       10 UNK         0.4970 
     63 O          32.8222   27.2987    7.9751 O.2       10 UNK        -0.4916 
     64 N          32.4951   26.7640    5.7950 N.am      11 UNK        -0.4279 
     65 CA         33.1978   25.4710    5.7662 C.3       11 UNK         0.1003 
     66 C          32.4296   24.2772    6.4071 C.2       11 UNK         0.5709 
     67 N          31.2427   24.4682    6.9702 N.am      11 UNK        -0.7358 
     68 O          32.9265   23.1527    6.4024 O.2       11 UNK        -0.4999 
     69 C69        33.6754   25.1433    4.3274 C.3       12 UNK        -0.0954 
     70 S70        34.7181   26.4657    3.6201 S.3       12 UNK        -0.2268 
     71 C71        35.4304   25.6368    2.1671 C.3       12 UNK         0.0203 
     72 H72        26.5964   22.6460   -0.4955 H         1 UNK         0.0888 
     73 H73        27.9622   22.7010   -1.6136 H         1 UNK         0.0888 
     74 H74        27.8416   21.3981   -0.4294 H         1 UNK         0.0888 
     75 H75        29.3523   21.6908    1.1917 H         1 UNK         0.3017 
     76 H76        30.7273   24.0967    1.7503 H         1 UNK         0.0873 
     77 H77        31.6659   22.8530    3.6862 H         1 UNK         0.0745 
     78 H78        30.4524   21.6232    3.5420 H         1 UNK         0.0745 
     79 H79        33.0061   21.4615   -0.3052 H         1 UNK         0.0705 
     80 H80        31.3694   22.0316   -0.2172 H         1 UNK         0.0705 
     81 H81        34.2757   23.1985    1.9001 H         1 UNK         0.1334 
     82 H82        34.2312   27.1419    0.2313 H         1 UNK         0.1417 
     83 H83        31.6502   24.1121   -1.3668 H         1 UNK         0.1562 
     84 H84        32.7321   26.3846   -2.7125 H         1 UNK         0.0748 
     85 H85        32.7952   27.7092   -1.5771 H         1 UNK         0.0748 
     86 H86        30.3318   26.8914    0.6068 H         1 UNK         0.0940 
     87 H87        30.9810   28.3925   -0.0145 H         1 UNK         0.0940 
     88 H88        28.7537   28.9873   -0.9769 H         1 UNK         0.0703 
     89 H89        28.0016   26.3147   -0.0906 H         1 UNK         0.3081 
     90 H90        24.5453   26.7213   -1.0165 H         1 UNK         0.0719 
     91 H91        26.9085   25.0075   -1.9571 H         1 UNK         0.0809 
     92 H92        25.2152   24.5207   -2.0302 H         1 UNK         0.0809 
     93 H93        25.7808   25.8929   -2.9693 H         1 UNK         0.0809 
     94 H94        26.4809   25.1217    0.6218 H         1 UNK         0.2990 
     95 H95        24.3045   25.3190    3.4555 H         1 UNK         0.0690 
     96 H96        24.8443   22.9045    3.5107 H         1 UNK         0.0788 
     97 H97        25.3940   22.9509    1.8367 H         1 UNK         0.0788 
     98 H98        23.6992   23.2248    2.2186 H         1 UNK         0.0788 
     99 H99        26.9484   24.3209    3.2353 H         1 UNK         0.2993 
    100 H100       28.7098   27.3282    3.7520 H         1 UNK         0.0949 
    101 H101       28.2088   25.1863    5.8718 H         1 UNK         0.0767 
    102 H102       29.5175   26.3708    5.8383 H         1 UNK         0.0767 
    103 H103       27.8598   26.8980    6.0462 H         1 UNK         0.0767 
    104 H104       29.8446   25.8492    2.6029 H         1 UNK         0.3013 
    105 H105       26.7546   29.6502    0.4252 H         1 UNK         0.3121 
    106 H106       27.1879   29.9360    3.2826 H         1 UNK         0.0774 
    107 H107       25.0371   31.1016    1.4293 H         1 UNK         0.0815 
    108 H108       24.9792   31.0896    3.1874 H         1 UNK         0.0815 
    109 H109       24.9290   29.5730    2.3051 H         1 UNK         0.0815 
    110 H110       28.2076   31.8023    0.5934 H         1 UNK         0.2987 
    111 H111       28.7482   34.2026    2.2932 H         1 UNK         0.0949 
    112 H112       28.2380   34.0713   -0.7365 H         1 UNK         0.0806 
    113 H113       27.1276   34.7419    0.4579 H         1 UNK         0.0806 
    114 H114       28.6805   35.5112    0.1711 H         1 UNK         0.0806 
    115 H115       30.8257   34.9061    2.2631 H         1 UNK         0.3010 
    116 H116       33.0245   34.9327    2.1794 H         1 UNK         0.0829 
    117 H117       32.6196   35.5158   -0.2284 H         1 UNK         0.0813 
    118 H118       34.1550   34.7003    0.0058 H         1 UNK         0.0813 
    119 H119       32.7933   33.8157   -0.6633 H         1 UNK         0.0813 
    120 H120       31.6966   32.3834    3.1298 H         1 UNK         0.3038 
    121 H121       34.0477   30.8574    3.6892 H         1 UNK         0.0769 
    122 H122       31.9181   29.7059    1.7903 H         1 UNK         0.0811 
    123 H123       33.0765   28.7056    2.6498 H         1 UNK         0.0811 
    124 H124       33.6383   29.8606    1.4561 H         1 UNK         0.0811 
    125 H125       33.4815   29.0994    5.1836 H         1 UNK         0.3204 
    126 H126       30.8201   28.8752    6.3005 H         1 UNK         0.0748 
    127 H127       31.4770   29.5768    8.6141 H         1 UNK         0.0771 
    128 H128       33.0421   30.1219    8.0219 H         1 UNK         0.0771 
    129 H129       31.5651   30.9353    7.5077 H         1 UNK         0.0771 
    130 H130       32.1291   27.0778    4.9090 H         1 UNK         0.2980 
    131 H131       34.0956   25.5810    6.3777 H         1 UNK         0.0545 
    132 H132       30.8439   25.3908    7.0238 H         1 UNK         0.3459 
    133 H133       30.7642   23.6843    7.3842 H         1 UNK         0.3459 
    134 H134       34.2492   24.2148    4.3140 H         1 UNK         0.0616 
    135 H135       32.8179   24.9925    3.6699 H         1 UNK         0.0616 
    136 H136       36.1339   26.3162    1.6836 H         1 UNK         0.0634 
    137 H137       36.0141   24.7747    2.4939 H         1 UNK         0.0634 
@<TRIPOS>BOND
     1    1    2 1    
     2    1   72 1    
     3    1   73 1    
     4    1   74 1    
     5    2    3 2    
     6    2    4 am   BACKBONE|DICT|INTERRES
     7    4    5 1    
     8    4   75 1    
     9    5    6 1    
    10    5   35 1    
    11    5   76 1    
    12    6    7 1    
    13    6   77 1    
    14    6   78 1    
    15    7    8 1    
    16    8    9 1    
    17    8   79 1    
    18    8   80 1    
    19    9   10 ar   
    20    9   14 ar   
    21   10   11 ar   
    22   10   81 1    
    23   11   12 ar   
    24   11   71 1    
    25   12   13 ar   
    26   12   82 1    
    27   13   14 ar   
    28   13   15 1    
    29   14   83 1    
    30   15   16 1    
    31   15   84 1    
    32   15   85 1    
    33   16   17 1    
    34   17   18 1    
    35   17   86 1    
    36   17   87 1    
    37   18   19 1    
    38   18   37 1    
    39   18   88 1    
    40   19   20 am   BACKBONE|DICT|INTERRES
    41   19   89 1    
    42   20   21 2    
    43   20   22 1    
    44   22   23 1    
    45   22   24 1    
    46   22   90 1    
    47   23   91 1    
    48   23   92 1    
    49   23   93 1    
    50   24   25 am   BACKBONE|DICT|INTERRES
    51   24   94 1    
    52   25   26 2    
    53   25   27 1    
    54   27   28 1    
    55   27   29 1    
    56   27   95 1    
    57   28   96 1    
    58   28   97 1    
    59   28   98 1    
    60   29   30 am   BACKBONE|DICT|INTERRES
    61   29   99 1    
    62   30   31 2    
    63   30   32 1    
    64   32   33 1    
    65   32   34 1    
    66   32  100 1    
    67   33  101 1    
    68   33  102 1    
    69   33  103 1    
    70   34   35 am   BACKBONE|DICT|INTERRES
    71   34  104 1    
    72   35   36 2    
    73   37   38 2    
    74   37   39 am   BACKBONE|DICT|INTERRES
    75   39   40 1    
    76   39  105 1    
    77   40   41 1    
    78   40   42 1    
    79   40  106 1    
    80   41  107 1    
    81   41  108 1    
    82   41  109 1    
    83   42   43 2    
    84   42   44 am   BACKBONE|DICT|INTERRES
    85   44   45 1    
    86   44  110 1    
    87   45   46 1    
    88   45   47 1    
    89   45  111 1    
    90   46  112 1    
    91   46  113 1    
    92   46  114 1    
    93   47   48 2    
    94   47   49 am   BACKBONE|DICT|INTERRES
    95   49   50 1    
    96   49  115 1    
    97   50   51 1    
    98   50   52 1    
    99   50  116 1    
   100   51  117 1    
   101   51  118 1    
   102   51  119 1    
   103   52   53 2    
   104   52   54 am   BACKBONE|DICT|INTERRES
   105   54   55 1    
   106   54  120 1    
   107   55   56 1    
   108   55   57 1    
   109   55  121 1    
   110   56  122 1    
   111   56  123 1    
   112   56  124 1    
   113   57   58 2    
   114   57   59 am   BACKBONE|DICT|INTERRES
   115   59   60 1    
   116   59  125 1    
   117   60   61 1    
   118   60   62 1    
   119   60  126 1    
   120   61  127 1    
   121   61  128 1    
   122   61  129 1    
   123   62   63 2    
   124   62   64 am   BACKBONE|DICT|INTERRES
   125   64   65 1    
   126   64  130 1    
   127   65   66 1    
   128   65   69 1    
   129   65  131 1    
   130   66   67 am   BACKBONE|DICT|INTERRES
   131   66   68 2    
   132   67  132 1    
   133   67  133 1    
   134   69   70 1    
   135   69  134 1    
   136   69  135 1    
   137   70   71 1    
   138   71  136 1    
   139   71  137 1    
@<TRIPOS>SUBSTRUCTURE
     1 UNK         1 GROUP             0       ****    0 ROOT    
