@<TRIPOS>MOLECULE
3R136
137   139    1
SMALL
USER_CHARGES


@<TRIPOS>ATOM
      1 CA         28.7315   26.2795   -3.2887 C.3       0 UNK        -0.1979 
      2 C          28.5033   24.9591   -2.5679 C.2       0 UNK         0.4864 
      3 O          28.0013   24.0130   -3.1755 O.2       0 UNK        -0.5359 
      4 N          28.8421   24.8989   -1.2726 N.am      1 UNK        -0.4318 
      5 CA         28.7822   23.7451   -0.3559 C.3       1 UNK         0.0824 
      6 C6         29.6208   22.5256   -0.8159 C.3       12 UNK        -0.0944 
      7 S7         31.4044   22.9015   -0.8957 S.3       12 UNK        -0.2672 
      8 C8         32.0696   21.8253    0.4147 C.3       12 UNK         0.0333 
      9 C9         32.0592   22.4979    1.7813 C.ar      12 UNK        -0.0807 
     10 C10        33.2433   23.0335    2.2990 C.ar      12 UNK        -0.0894 
     11 C11        33.2712   23.5967    3.5781 C.ar      12 UNK        -0.0804 
     12 C12        32.0987   23.6334    4.3352 C.ar      12 UNK        -0.0824 
     13 C13        30.8999   23.1370    3.8169 C.ar      12 UNK        -0.0762 
     14 C14        30.8874   22.5554    2.5450 C.ar      12 UNK        -0.0782 
     15 C15        29.6256   23.2237    4.6450 C.3       12 UNK         0.0230 
     16 S16        28.5025   24.5381    4.0677 S.3       12 UNK        -0.2608 
     17 C17        29.5413   26.0417    4.1328 C.3       12 UNK        -0.0989 
     18 CA         29.7255   26.6463    2.7197 C.3       5 UNK         0.0716 
     19 N          28.4472   27.1160    2.1843 N.am      5 UNK        -0.4135 
     20 C          28.2063   27.5042    0.9293 C.2       4 UNK         0.5031 
     21 O          29.0484   27.4339    0.0294 O.2       4 UNK        -0.5229 
     22 CA         26.7797   28.0134    0.6302 C.3       4 UNK         0.0329 
     23 CB         26.5807   28.3899   -0.8489 C.3       4 UNK        -0.2001 
     24 N          25.7526   27.0327    0.9867 N.am      4 UNK        -0.4303 
     25 C          25.3384   26.7036    2.2160 C.2       3 UNK         0.5044 
     26 O          25.7598   27.2469    3.2378 O.2       3 UNK        -0.5152 
     27 CA         24.3252   25.5480    2.3385 C.3       3 UNK         0.0319 
     28 CB         22.8742   26.0643    2.2841 C.3       3 UNK        -0.2001 
     29 N          24.5582   24.4474    1.3883 N.am      3 UNK        -0.4354 
     30 C          24.4111   24.4374    0.0554 C.2       2 UNK         0.4964 
     31 O          23.9793   25.3886   -0.5977 O.2       2 UNK        -0.5047 
     32 CA         24.9641   23.2032   -0.6756 C.3       2 UNK         0.0288 
     33 CB         24.2648   22.9611   -2.0255 C.3       2 UNK        -0.2113 
     34 N          26.3967   23.3869   -0.9086 N.am      2 UNK        -0.4145 
     35 C          27.3515   23.3116    0.0268 C.2       1 UNK         0.5006 
     36 O          27.1324   22.9313    1.1777 O.2       1 UNK        -0.5103 
     37 C          30.7291   27.8143    2.7148 C.2       5 UNK         0.5055 
     38 O          30.5484   28.7568    3.4841 O.2       5 UNK        -0.5220 
     39 N          31.7215   27.7489    1.8139 N.am      6 UNK        -0.4450 
     40 CA         32.6579   28.8242    1.4518 C.3       6 UNK         0.0367 
     41 CB         33.5615   29.2293    2.6346 C.3       6 UNK        -0.1929 
     42 C          31.9591   30.0353    0.7998 C.2       6 UNK         0.5070 
     43 O          32.3824   31.1749    1.0053 O.2       6 UNK        -0.5237 
     44 N          30.9105   29.7677    0.0063 N.am      7 UNK        -0.4739 
     45 CA         30.1010   30.7381   -0.7350 C.3       7 UNK         0.0276 
     46 CB         30.9195   31.3694   -1.8857 C.3       7 UNK        -0.1927 
     47 C          29.4372   31.7569    0.2109 C.2       7 UNK         0.5013 
     48 O          28.5336   31.3785    0.9572 O.2       7 UNK        -0.5193 
     49 N          29.8910   33.0156    0.1617 N.am      8 UNK        -0.4253 
     50 CA         29.4173   34.1147    1.0043 C.3       8 UNK         0.0242 
     51 CB         29.6049   35.4357    0.2377 C.3       8 UNK        -0.2000 
     52 C          30.1132   34.1855    2.3779 C.2       8 UNK         0.4948 
     53 O          29.6588   34.9583    3.2240 O.2       8 UNK        -0.5275 
     54 N          31.1999   33.4251    2.5782 N.am      9 UNK        -0.4246 
     55 CA         31.9564   33.3620    3.8311 C.3       9 UNK         0.0261 
     56 CB         33.4620   33.2832    3.4994 C.3       9 UNK        -0.1959 
     57 C          31.4520   32.1957    4.7057 C.2       9 UNK         0.5033 
     58 O          30.2565   31.8943    4.6958 O.2       9 UNK        -0.5390 
     59 N          32.3605   31.5731    5.4641 N.am      10 UNK        -0.4215 
     60 CA         32.1283   30.3759    6.2651 C.3       10 UNK         0.0240 
     61 CB         31.5377   30.7540    7.6357 C.3       10 UNK        -0.1982 
     62 C          33.4670   29.6498    6.4249 C.2       10 UNK         0.4970 
     63 O          34.5017   30.3145    6.5282 O.2       10 UNK        -0.4916 
     64 N          33.4247   28.3142    6.4583 N.am      11 UNK        -0.4279 
     65 CA         34.5775   27.4620    6.7850 C.3       11 UNK         0.1003 
     66 C          34.8733   27.4652    8.3097 C.2       11 UNK         0.5709 
     67 N          36.1312   27.3037    8.6972 N.am      11 UNK        -0.7358 
     68 O          33.9738   27.5756    9.1418 O.2       11 UNK        -0.4999 
     69 C69        34.3856   26.0159    6.2590 C.3       12 UNK        -0.0954 
     70 S70        34.4704   25.9409    4.4398 S.3       12 UNK        -0.2268 
     71 C71        34.5698   24.1468    4.1495 C.3       12 UNK         0.0203 
     72 H72        27.7880   26.6677   -3.6710 H         1 UNK         0.0888 
     73 H73        29.1695   27.0333   -2.6346 H         1 UNK         0.0888 
     74 H74        29.4058   26.1323   -4.1318 H         1 UNK         0.0888 
     75 H75        29.1632   25.7604   -0.8364 H         1 UNK         0.3017 
     76 H76        29.2229   24.1080    0.5739 H         1 UNK         0.0873 
     77 H77        29.4639   21.6776   -0.1474 H         1 UNK         0.0745 
     78 H78        29.2993   22.1799   -1.7992 H         1 UNK         0.0745 
     79 H79        33.0914   21.5559    0.1427 H         1 UNK         0.0705 
     80 H80        31.5213   20.8831    0.4539 H         1 UNK         0.0705 
     81 H81        34.1506   22.9939    1.7114 H         1 UNK         0.1334 
     82 H82        32.1184   24.0652    5.3259 H         1 UNK         0.1417 
     83 H83        29.9637   22.1505    2.1549 H         1 UNK         0.1562 
     84 H84        29.8589   23.3940    5.6973 H         1 UNK         0.0748 
     85 H85        29.0998   22.2688    4.6019 H         1 UNK         0.0748 
     86 H86        30.5052   25.8154    4.5879 H         1 UNK         0.0940 
     87 H87        29.0635   26.7618    4.8002 H         1 UNK         0.0940 
     88 H88        30.1047   25.8618    2.0613 H         1 UNK         0.0703 
     89 H89        27.6827   27.1883    2.8485 H         1 UNK         0.3081 
     90 H90        26.6274   28.9128    1.2308 H         1 UNK         0.0719 
     91 H91        26.7107   27.5287   -1.5043 H         1 UNK         0.0809 
     92 H92        25.5827   28.7926   -1.0229 H         1 UNK         0.0809 
     93 H93        27.2899   29.1537   -1.1622 H         1 UNK         0.0809 
     94 H94        25.3092   26.5407    0.2170 H         1 UNK         0.2990 
     95 H95        24.4776   25.1115    3.3270 H         1 UNK         0.0690 
     96 H96        22.1591   25.2520    2.4137 H         1 UNK         0.0788 
     97 H97        22.6494   26.5630    1.3410 H         1 UNK         0.0788 
     98 H98        22.6917   26.7871    3.0804 H         1 UNK         0.0788 
     99 H99        25.0362   23.6483    1.7886 H         1 UNK         0.2993 
    100 H100       24.8083   22.3235   -0.0471 H         1 UNK         0.0949 
    101 H101       24.4229   23.7874   -2.7202 H         1 UNK         0.0767 
    102 H102       24.6309   22.0514   -2.5018 H         1 UNK         0.0767 
    103 H103       23.1882   22.8472   -1.8917 H         1 UNK         0.0767 
    104 H104       26.6863   23.6729   -1.8404 H         1 UNK         0.3013 
    105 H105       31.7706   26.9264    1.2283 H         1 UNK         0.3121 
    106 H106       33.3070   28.4092    0.6795 H         1 UNK         0.0774 
    107 H107       34.3301   29.9343    2.3164 H         1 UNK         0.0815 
    108 H108       32.9929   29.7086    3.4289 H         1 UNK         0.0815 
    109 H109       34.0756   28.3699    3.0569 H         1 UNK         0.0815 
    110 H110       30.5735   28.8112   -0.0374 H         1 UNK         0.2987 
    111 H111       29.2900   30.1741   -1.1933 H         1 UNK         0.0949 
    112 H112       30.3115   32.0647   -2.4662 H         1 UNK         0.0806 
    113 H113       31.7972   31.9101   -1.5305 H         1 UNK         0.0806 
    114 H114       31.2690   30.6026   -2.5771 H         1 UNK         0.0806 
    115 H115       30.6557   33.2211   -0.4653 H         1 UNK         0.3010 
    116 H116       28.3495   33.9812    1.1918 H         1 UNK         0.0829 
    117 H117       29.0672   35.4247   -0.7107 H         1 UNK         0.0813 
    118 H118       29.2229   36.2801    0.8133 H         1 UNK         0.0813 
    119 H119       30.6564   35.6350    0.0269 H         1 UNK         0.0813 
    120 H120       31.4779   32.7596    1.8624 H         1 UNK         0.3038 
    121 H121       31.7952   34.2777    4.4035 H         1 UNK         0.0769 
    122 H122       34.0770   33.4000    4.3924 H         1 UNK         0.0811 
    123 H123       33.7538   34.0791    2.8139 H         1 UNK         0.0811 
    124 H124       33.7272   32.3346    3.0318 H         1 UNK         0.0811 
    125 H125       33.3309   31.8598    5.4239 H         1 UNK         0.3204 
    126 H126       31.4320   29.7202    5.7395 H         1 UNK         0.0748 
    127 H127       31.3825   29.8677    8.2525 H         1 UNK         0.0771 
    128 H128       32.1979   31.4251    8.1868 H         1 UNK         0.0771 
    129 H129       30.5715   31.2476    7.5292 H         1 UNK         0.0771 
    130 H130       32.5339   27.8463    6.3908 H         1 UNK         0.2980 
    131 H131       35.4548   27.8830    6.2886 H         1 UNK         0.0545 
    132 H132       36.3417   27.2893    9.6829 H         1 UNK         0.3459 
    133 H133       36.8754   27.2009    8.0248 H         1 UNK         0.3459 
    134 H134       33.4360   25.5996    6.5983 H         1 UNK         0.0616 
    135 H135       35.1682   25.3631    6.6505 H         1 UNK         0.0616 
    136 H136       34.8111   23.6195    5.0732 H         1 UNK         0.0634 
    137 H137       35.3994   23.9580    3.4666 H         1 UNK         0.0634 
@<TRIPOS>BOND
     1    1    2 1    
     2    1   72 1    
     3    1   73 1    
     4    1   74 1    
     5    2    3 2    
     6    2    4 am   BACKBONE|DICT|INTERRES
     7    4    5 1    
     8    4   75 1    
     9    5    6 1    
    10    5   35 1    
    11    5   76 1    
    12    6    7 1    
    13    6   77 1    
    14    6   78 1    
    15    7    8 1    
    16    8    9 1    
    17    8   79 1    
    18    8   80 1    
    19    9   10 ar   
    20    9   14 ar   
    21   10   11 ar   
    22   10   81 1    
    23   11   12 ar   
    24   11   71 1    
    25   12   13 ar   
    26   12   82 1    
    27   13   14 ar   
    28   13   15 1    
    29   14   83 1    
    30   15   16 1    
    31   15   84 1    
    32   15   85 1    
    33   16   17 1    
    34   17   18 1    
    35   17   86 1    
    36   17   87 1    
    37   18   19 1    
    38   18   37 1    
    39   18   88 1    
    40   19   20 am   BACKBONE|DICT|INTERRES
    41   19   89 1    
    42   20   21 2    
    43   20   22 1    
    44   22   23 1    
    45   22   24 1    
    46   22   90 1    
    47   23   91 1    
    48   23   92 1    
    49   23   93 1    
    50   24   25 am   BACKBONE|DICT|INTERRES
    51   24   94 1    
    52   25   26 2    
    53   25   27 1    
    54   27   28 1    
    55   27   29 1    
    56   27   95 1    
    57   28   96 1    
    58   28   97 1    
    59   28   98 1    
    60   29   30 am   BACKBONE|DICT|INTERRES
    61   29   99 1    
    62   30   31 2    
    63   30   32 1    
    64   32   33 1    
    65   32   34 1    
    66   32  100 1    
    67   33  101 1    
    68   33  102 1    
    69   33  103 1    
    70   34   35 am   BACKBONE|DICT|INTERRES
    71   34  104 1    
    72   35   36 2    
    73   37   38 2    
    74   37   39 am   BACKBONE|DICT|INTERRES
    75   39   40 1    
    76   39  105 1    
    77   40   41 1    
    78   40   42 1    
    79   40  106 1    
    80   41  107 1    
    81   41  108 1    
    82   41  109 1    
    83   42   43 2    
    84   42   44 am   BACKBONE|DICT|INTERRES
    85   44   45 1    
    86   44  110 1    
    87   45   46 1    
    88   45   47 1    
    89   45  111 1    
    90   46  112 1    
    91   46  113 1    
    92   46  114 1    
    93   47   48 2    
    94   47   49 am   BACKBONE|DICT|INTERRES
    95   49   50 1    
    96   49  115 1    
    97   50   51 1    
    98   50   52 1    
    99   50  116 1    
   100   51  117 1    
   101   51  118 1    
   102   51  119 1    
   103   52   53 2    
   104   52   54 am   BACKBONE|DICT|INTERRES
   105   54   55 1    
   106   54  120 1    
   107   55   56 1    
   108   55   57 1    
   109   55  121 1    
   110   56  122 1    
   111   56  123 1    
   112   56  124 1    
   113   57   58 2    
   114   57   59 am   BACKBONE|DICT|INTERRES
   115   59   60 1    
   116   59  125 1    
   117   60   61 1    
   118   60   62 1    
   119   60  126 1    
   120   61  127 1    
   121   61  128 1    
   122   61  129 1    
   123   62   63 2    
   124   62   64 am   BACKBONE|DICT|INTERRES
   125   64   65 1    
   126   64  130 1    
   127   65   66 1    
   128   65   69 1    
   129   65  131 1    
   130   66   67 am   BACKBONE|DICT|INTERRES
   131   66   68 2    
   132   67  132 1    
   133   67  133 1    
   134   69   70 1    
   135   69  134 1    
   136   69  135 1    
   137   70   71 1    
   138   71  136 1    
   139   71  137 1    
@<TRIPOS>SUBSTRUCTURE
     1 UNK         1 GROUP             0       ****    0 ROOT    
