@<TRIPOS>MOLECULE
3R136
137   139    1
SMALL
USER_CHARGES


@<TRIPOS>ATOM
      1 CA         28.0009   18.5509    2.2103 C.3       0 UNK        -0.1979 
      2 C          28.1191   19.4475    0.9864 C.2       0 UNK         0.4864 
      3 O          28.0498   18.9560   -0.1414 O.2       0 UNK        -0.5359 
      4 N          28.3024   20.7566    1.1998 N.am      1 UNK        -0.4318 
      5 CA         28.3803   21.7714    0.1457 C.3       1 UNK         0.0824 
      6 C6         29.0242   23.0861    0.6577 C.3       12 UNK        -0.0944 
      7 S7         30.8134   22.8751    0.9381 S.3       12 UNK        -0.2672 
      8 C8         30.9290   22.7388    2.7528 C.3       12 UNK         0.0333 
      9 C9         31.0020   24.0945    3.4453 C.ar      12 UNK        -0.0807 
     10 C10        32.0434   24.9790    3.1448 C.ar      12 UNK        -0.0894 
     11 C11        32.1506   26.2040    3.8080 C.ar      12 UNK        -0.0804 
     12 C12        31.2149   26.5400    4.7892 C.ar      12 UNK        -0.0824 
     13 C13        30.1686   25.6671    5.1005 C.ar      12 UNK        -0.0762 
     14 C14        30.0657   24.4458    4.4243 C.ar      12 UNK        -0.0782 
     15 C15        29.1577   26.0409    6.1756 C.3       12 UNK         0.0230 
     16 S16        27.5151   26.3959    5.4755 S.3       12 UNK        -0.2608 
     17 C17        27.8013   27.9604    4.5726 C.3       12 UNK        -0.0989 
     18 CA         28.2294   27.7563    3.0907 C.3       5 UNK         0.0716 
     19 N          27.3812   26.8030    2.3692 N.am      5 UNK        -0.4135 
     20 C          26.0844   26.9390    2.0642 C.2       4 UNK         0.5031 
     21 O          25.4050   27.9375    2.3113 O.2       4 UNK        -0.5229 
     22 CA         25.4546   25.7403    1.3352 C.3       4 UNK         0.0329 
     23 CB         24.0184   25.4765    1.8202 C.3       4 UNK        -0.2001 
     24 N          25.4462   25.8598   -0.1258 N.am      4 UNK        -0.4303 
     25 C          26.4652   26.1896   -0.9325 C.2       3 UNK         0.5044 
     26 O          27.5739   26.5663   -0.5466 O.2       3 UNK        -0.5152 
     27 CA         26.2171   25.9498   -2.4315 C.3       3 UNK         0.0319 
     28 CB         27.2547   26.6433   -3.3331 C.3       3 UNK        -0.2001 
     29 N          26.2710   24.5088   -2.6701 N.am      3 UNK        -0.4354 
     30 C          25.2452   23.6631   -2.5009 C.2       2 UNK         0.4964 
     31 O          24.0859   24.0227   -2.2922 O.2       2 UNK        -0.5047 
     32 CA         25.5930   22.1658   -2.4947 C.3       2 UNK         0.0288 
     33 CB         25.7055   21.6225   -3.9285 C.3       2 UNK        -0.2113 
     34 N          26.8337   21.8903   -1.7600 N.am      2 UNK        -0.4145 
     35 C          26.9762   22.0285   -0.4325 C.2       1 UNK         0.5006 
     36 O          26.0627   22.3564    0.3285 O.2       1 UNK        -0.5103 
     37 C          28.4266   29.0905    2.3323 C.2       5 UNK         0.5055 
     38 O          28.7055   30.1142    2.9618 O.2       5 UNK        -0.5220 
     39 N          28.2936   29.0590    0.9952 N.am      6 UNK        -0.4450 
     40 CA         28.2865   30.2335    0.1155 C.3       6 UNK         0.0367 
     41 CB         27.8961   29.8018   -1.3052 C.3       6 UNK        -0.1929 
     42 C          29.5987   31.0343    0.0864 C.2       6 UNK         0.5070 
     43 O          29.5633   32.2292   -0.2101 O.2       6 UNK        -0.5237 
     44 N          30.7274   30.3961    0.4238 N.am      7 UNK        -0.4739 
     45 CA         32.0572   31.0089    0.5318 C.3       7 UNK         0.0276 
     46 CB         33.1213   29.9057    0.3952 C.3       7 UNK        -0.1927 
     47 C          32.2221   31.8513    1.8169 C.2       7 UNK         0.5013 
     48 O          33.1881   31.6673    2.5616 O.2       7 UNK        -0.5193 
     49 N          31.2542   32.7473    2.0592 N.am      8 UNK        -0.4253 
     50 CA         31.1419   33.6910    3.1781 C.3       8 UNK         0.0242 
     51 CB         32.2115   34.7961    3.0437 C.3       8 UNK        -0.2000 
     52 C          31.1611   33.0275    4.5703 C.2       8 UNK         0.4948 
     53 O          31.6272   33.6495    5.5267 O.2       8 UNK        -0.5275 
     54 N          30.7002   31.7692    4.6630 N.am      9 UNK        -0.4246 
     55 CA         30.6927   30.8677    5.8283 C.3       9 UNK         0.0261 
     56 CB         29.7628   31.3963    6.9361 C.3       9 UNK        -0.1959 
     57 C          32.0764   30.4918    6.3999 C.2       9 UNK         0.5033 
     58 O          32.2511   29.3557    6.8390 O.2       9 UNK        -0.5390 
     59 N          33.0324   31.4259    6.3764 N.am      10 UNK        -0.4215 
     60 CA         34.4208   31.2626    6.8108 C.3       10 UNK         0.0240 
     61 CB         35.0287   32.6581    7.0330 C.3       10 UNK        -0.1982 
     62 C          35.2925   30.4460    5.8370 C.2       10 UNK         0.4970 
     63 O          36.4140   30.0956    6.2069 O.2       10 UNK        -0.4916 
     64 N          34.7846   30.1755    4.6269 N.am      11 UNK        -0.4279 
     65 CA         35.4752   29.4906    3.5239 C.3       11 UNK         0.1003 
     66 C          36.5632   30.3899    2.8760 C.2       11 UNK         0.5709 
     67 N          36.2193   31.6279    2.5422 N.am      11 UNK        -0.7358 
     68 O          37.7035   29.9808    2.6683 O.2       11 UNK        -0.4999 
     69 C69        35.9530   28.0447    3.8568 C.3       12 UNK        -0.0954 
     70 S70        34.6857   26.9524    4.5939 S.3       12 UNK        -0.2268 
     71 C71        33.2756   27.1655    3.4658 C.3       12 UNK         0.0203 
     72 H72        27.0340   18.0485    2.2150 H         1 UNK         0.0888 
     73 H73        28.7808   17.7900    2.1944 H         1 UNK         0.0888 
     74 H74        28.0955   19.1134    3.1390 H         1 UNK         0.0888 
     75 H75        28.3107   21.1070    2.1457 H         1 UNK         0.3017 
     76 H76        29.0090   21.3771   -0.6564 H         1 UNK         0.0873 
     77 H77        28.5364   23.4420    1.5672 H         1 UNK         0.0745 
     78 H78        28.9103   23.8848   -0.0786 H         1 UNK         0.0745 
     79 H79        30.0967   22.1444    3.1313 H         1 UNK         0.0705 
     80 H80        31.8338   22.1809    2.9974 H         1 UNK         0.0705 
     81 H81        32.7751   24.7084    2.3955 H         1 UNK         0.1334 
     82 H82        31.3044   27.4825    5.3109 H         1 UNK         0.1417 
     83 H83        29.2604   23.7676    4.6723 H         1 UNK         0.1562 
     84 H84        29.4990   26.8999    6.7558 H         1 UNK         0.0748 
     85 H85        29.0671   25.2142    6.8815 H         1 UNK         0.0748 
     86 H86        28.5447   28.5427    5.1149 H         1 UNK         0.0940 
     87 H87        26.8787   28.5421    4.6181 H         1 UNK         0.0940 
     88 H88        29.2182   27.3017    3.0907 H         1 UNK         0.0703 
     89 H89        27.8501   25.9630    2.0636 H         1 UNK         0.3081 
     90 H90        26.0443   24.8538    1.5770 H         1 UNK         0.0719 
     91 H91        23.3416   26.2841    1.5382 H         1 UNK         0.0809 
     92 H92        23.6252   24.5474    1.4066 H         1 UNK         0.0809 
     93 H93        23.9837   25.3859    2.9069 H         1 UNK         0.0809 
     94 H94        24.6048   25.5282   -0.5794 H         1 UNK         0.2990 
     95 H95        25.2292   26.3381   -2.6894 H         1 UNK         0.0690 
     96 H96        27.0746   26.4205   -4.3849 H         1 UNK         0.0788 
     97 H97        28.2747   26.3365   -3.0976 H         1 UNK         0.0788 
     98 H98        27.2026   27.7259   -3.2230 H         1 UNK         0.0788 
     99 H99        27.1903   24.1171   -2.8135 H         1 UNK         0.2993 
    100 H100       24.7781   21.6398   -1.9918 H         1 UNK         0.0949 
    101 H101       24.7856   21.8037   -4.4864 H         1 UNK         0.0767 
    102 H102       26.5197   22.0938   -4.4806 H         1 UNK         0.0767 
    103 H103       25.8769   20.5457   -3.9314 H         1 UNK         0.0767 
    104 H104       27.6262   21.5849   -2.3070 H         1 UNK         0.3013 
    105 H105       28.0826   28.1675    0.5538 H         1 UNK         0.3121 
    106 H106       27.5131   30.9089    0.4874 H         1 UNK         0.0774 
    107 H107       27.8695   30.6560   -1.9834 H         1 UNK         0.0815 
    108 H108       28.6063   29.0815   -1.7131 H         1 UNK         0.0815 
    109 H109       26.9053   29.3479   -1.3209 H         1 UNK         0.0815 
    110 H110       30.6555   29.4212    0.6759 H         1 UNK         0.2987 
    111 H111       32.1906   31.6973   -0.3058 H         1 UNK         0.0949 
    112 H112       33.0145   29.1488    1.1710 H         1 UNK         0.0806 
    113 H113       33.0475   29.4048   -0.5702 H         1 UNK         0.0806 
    114 H114       34.1292   30.3175    0.4647 H         1 UNK         0.0806 
    115 H115       30.5072   32.7885    1.3703 H         1 UNK         0.3010 
    116 H116       30.1623   34.1617    3.0837 H         1 UNK         0.0829 
    117 H117       32.1730   35.2688    2.0624 H         1 UNK         0.0813 
    118 H118       32.0617   35.5826    3.7845 H         1 UNK         0.0813 
    119 H119       33.2181   34.4013    3.1866 H         1 UNK         0.0813 
    120 H120       30.3110   31.3595    3.8205 H         1 UNK         0.3038 
    121 H121       30.2662   29.9365    5.4586 H         1 UNK         0.0769 
    122 H122       28.7532   31.5600    6.5591 H         1 UNK         0.0811 
    123 H123       30.1217   32.3366    7.3556 H         1 UNK         0.0811 
    124 H124       29.6900   30.6817    7.7571 H         1 UNK         0.0811 
    125 H125       32.7542   32.3482    6.0431 H         1 UNK         0.3204 
    126 H126       34.4183   30.7314    7.7648 H         1 UNK         0.0748 
    127 H127       34.4620   33.2246    7.7724 H         1 UNK         0.0771 
    128 H128       36.0543   32.5871    7.3981 H         1 UNK         0.0771 
    129 H129       35.0496   33.2387    6.1096 H         1 UNK         0.0771 
    130 H130       33.8925   30.5829    4.3801 H         1 UNK         0.2980 
    131 H131       34.7313   29.3894    2.7378 H         1 UNK         0.0545 
    132 H132       36.8988   32.2403    2.1205 H         1 UNK         0.3459 
    133 H133       35.2590   31.9286    2.6613 H         1 UNK         0.3459 
    134 H134       36.3161   27.5583    2.9499 H         1 UNK         0.0616 
    135 H135       36.8036   28.0716    4.5392 H         1 UNK         0.0616 
    136 H136       32.9040   28.1889    3.5317 H         1 UNK         0.0634 
    137 H137       33.6062   27.0123    2.4374 H         1 UNK         0.0634 
@<TRIPOS>BOND
     1    1    2 1    
     2    1   72 1    
     3    1   73 1    
     4    1   74 1    
     5    2    3 2    
     6    2    4 am   BACKBONE|DICT|INTERRES
     7    4    5 1    
     8    4   75 1    
     9    5    6 1    
    10    5   35 1    
    11    5   76 1    
    12    6    7 1    
    13    6   77 1    
    14    6   78 1    
    15    7    8 1    
    16    8    9 1    
    17    8   79 1    
    18    8   80 1    
    19    9   10 ar   
    20    9   14 ar   
    21   10   11 ar   
    22   10   81 1    
    23   11   12 ar   
    24   11   71 1    
    25   12   13 ar   
    26   12   82 1    
    27   13   14 ar   
    28   13   15 1    
    29   14   83 1    
    30   15   16 1    
    31   15   84 1    
    32   15   85 1    
    33   16   17 1    
    34   17   18 1    
    35   17   86 1    
    36   17   87 1    
    37   18   19 1    
    38   18   37 1    
    39   18   88 1    
    40   19   20 am   BACKBONE|DICT|INTERRES
    41   19   89 1    
    42   20   21 2    
    43   20   22 1    
    44   22   23 1    
    45   22   24 1    
    46   22   90 1    
    47   23   91 1    
    48   23   92 1    
    49   23   93 1    
    50   24   25 am   BACKBONE|DICT|INTERRES
    51   24   94 1    
    52   25   26 2    
    53   25   27 1    
    54   27   28 1    
    55   27   29 1    
    56   27   95 1    
    57   28   96 1    
    58   28   97 1    
    59   28   98 1    
    60   29   30 am   BACKBONE|DICT|INTERRES
    61   29   99 1    
    62   30   31 2    
    63   30   32 1    
    64   32   33 1    
    65   32   34 1    
    66   32  100 1    
    67   33  101 1    
    68   33  102 1    
    69   33  103 1    
    70   34   35 am   BACKBONE|DICT|INTERRES
    71   34  104 1    
    72   35   36 2    
    73   37   38 2    
    74   37   39 am   BACKBONE|DICT|INTERRES
    75   39   40 1    
    76   39  105 1    
    77   40   41 1    
    78   40   42 1    
    79   40  106 1    
    80   41  107 1    
    81   41  108 1    
    82   41  109 1    
    83   42   43 2    
    84   42   44 am   BACKBONE|DICT|INTERRES
    85   44   45 1    
    86   44  110 1    
    87   45   46 1    
    88   45   47 1    
    89   45  111 1    
    90   46  112 1    
    91   46  113 1    
    92   46  114 1    
    93   47   48 2    
    94   47   49 am   BACKBONE|DICT|INTERRES
    95   49   50 1    
    96   49  115 1    
    97   50   51 1    
    98   50   52 1    
    99   50  116 1    
   100   51  117 1    
   101   51  118 1    
   102   51  119 1    
   103   52   53 2    
   104   52   54 am   BACKBONE|DICT|INTERRES
   105   54   55 1    
   106   54  120 1    
   107   55   56 1    
   108   55   57 1    
   109   55  121 1    
   110   56  122 1    
   111   56  123 1    
   112   56  124 1    
   113   57   58 2    
   114   57   59 am   BACKBONE|DICT|INTERRES
   115   59   60 1    
   116   59  125 1    
   117   60   61 1    
   118   60   62 1    
   119   60  126 1    
   120   61  127 1    
   121   61  128 1    
   122   61  129 1    
   123   62   63 2    
   124   62   64 am   BACKBONE|DICT|INTERRES
   125   64   65 1    
   126   64  130 1    
   127   65   66 1    
   128   65   69 1    
   129   65  131 1    
   130   66   67 am   BACKBONE|DICT|INTERRES
   131   66   68 2    
   132   67  132 1    
   133   67  133 1    
   134   69   70 1    
   135   69  134 1    
   136   69  135 1    
   137   70   71 1    
   138   71  136 1    
   139   71  137 1    
@<TRIPOS>SUBSTRUCTURE
     1 UNK         1 GROUP             0       ****    0 ROOT    
