@<TRIPOS>MOLECULE
3R136
137   139    1
SMALL
USER_CHARGES


@<TRIPOS>ATOM
      1 CA         24.5871   17.9998   -0.0100 C.3       0 UNK        -0.1979 
      2 C          25.8547   18.8373   -0.0979 C.2       0 UNK         0.4864 
      3 O          26.6327   18.6711   -1.0391 O.2       0 UNK        -0.5359 
      4 N          26.0713   19.7286    0.8786 N.am      1 UNK        -0.4318 
      5 CA         27.1989   20.6659    0.9210 C.3       1 UNK         0.0824 
      6 C6         27.4421   21.1779    2.3669 C.3       12 UNK        -0.0944 
      7 S7         29.2064   21.5143    2.6803 S.3       12 UNK        -0.2672 
      8 C8         29.1653   23.2154    3.3226 C.3       12 UNK         0.0333 
      9 C9         30.5674   23.8018    3.3645 C.ar      12 UNK        -0.0807 
     10 C10        31.2528   23.9485    4.5750 C.ar      12 UNK        -0.0894 
     11 C11        32.5473   24.4816    4.5986 C.ar      12 UNK        -0.0804 
     12 C12        33.1589   24.8495    3.3956 C.ar      12 UNK        -0.0824 
     13 C13        32.4748   24.7291    2.1832 C.ar      12 UNK        -0.0762 
     14 C14        31.1819   24.2005    2.1763 C.ar      12 UNK        -0.0782 
     15 C15        33.1380   25.1367    0.8760 C.3       12 UNK         0.0230 
     16 S16        32.1598   26.3700   -0.0411 S.3       12 UNK        -0.2608 
     17 C17        32.5620   27.9296    0.8258 C.3       12 UNK        -0.0989 
     18 CA         31.3386   28.6835    1.4234 C.3       5 UNK         0.0716 
     19 N          30.1786   28.6574    0.5268 N.am      5 UNK        -0.4135 
     20 C          29.2265   29.5913    0.4414 C.2       4 UNK         0.5031 
     21 O          29.2172   30.6254    1.1078 O.2       4 UNK        -0.5229 
     22 CA         28.0303   29.2578   -0.4627 C.3       4 UNK         0.0329 
     23 CB         28.4040   29.4026   -1.9460 C.3       4 UNK        -0.2001 
     24 N          27.4863   27.9172   -0.2127 N.am      4 UNK        -0.4303 
     25 C          27.0156   27.4807    0.9635 C.2       3 UNK         0.5044 
     26 O          27.0145   28.1659    1.9843 O.2       3 UNK        -0.5152 
     27 CA         26.4614   26.0476    1.0443 C.3       3 UNK         0.0319 
     28 CB         24.9717   26.0160    0.6539 C.3       3 UNK        -0.2001 
     29 N          27.2217   25.0176    0.3211 N.am      3 UNK        -0.4354 
     30 C          27.4028   24.8615   -0.9986 C.2       2 UNK         0.4964 
     31 O          27.0368   25.6777   -1.8449 O.2       2 UNK        -0.5047 
     32 CA         28.1162   23.5751   -1.4604 C.3       2 UNK         0.0288 
     33 CB         29.5706   23.8791   -1.8560 C.3       2 UNK        -0.2113 
     34 N          28.0964   22.4741   -0.4850 N.am      2 UNK        -0.4145 
     35 C          26.9935   21.8229   -0.0835 C.2       1 UNK         0.5006 
     36 O          25.8549   22.1189   -0.4573 O.2       1 UNK        -0.5103 
     37 C          31.0023   28.3055    2.8878 C.2       5 UNK         0.5055 
     38 O          31.9141   28.0107    3.6565 O.2       5 UNK        -0.5220 
     39 N          29.7215   28.3626    3.2760 N.am      6 UNK        -0.4450 
     40 CA         29.2546   28.2453    4.6555 C.3       6 UNK         0.0367 
     41 CB         28.7340   26.8164    4.8915 C.3       6 UNK        -0.1929 
     42 C          28.1890   29.3092    4.9804 C.2       6 UNK         0.5070 
     43 O          27.4653   29.1419    5.9640 O.2       6 UNK        -0.5237 
     44 N          28.0834   30.3737    4.1699 N.am      7 UNK        -0.4739 
     45 CA         27.0545   31.4059    4.3133 C.3       7 UNK         0.0276 
     46 CB         25.7121   30.9197    3.7298 C.3       7 UNK        -0.1927 
     47 C          27.4932   32.7313    3.6832 C.2       7 UNK         0.5013 
     48 O          27.6216   33.7268    4.3968 O.2       7 UNK        -0.5193 
     49 N          27.6961   32.7289    2.3594 N.am      8 UNK        -0.4253 
     50 CA         28.1059   33.9014    1.5809 C.3       8 UNK         0.0242 
     51 CB         27.7532   33.6807    0.1003 C.3       8 UNK        -0.2000 
     52 C          29.6030   34.2066    1.7419 C.2       8 UNK         0.4948 
     53 O          29.9856   35.3772    1.7717 O.2       8 UNK        -0.5275 
     54 N          30.4092   33.1481    1.8559 N.am      9 UNK        -0.4246 
     55 CA         31.8357   33.1779    2.1535 C.3       9 UNK         0.0261 
     56 CB         32.6118   32.7706    0.8878 C.3       9 UNK        -0.1959 
     57 C          32.1208   32.2170    3.3163 C.2       9 UNK         0.5033 
     58 O          31.2504   31.4283    3.6945 O.2       9 UNK        -0.5390 
     59 N          33.3427   32.2978    3.8536 N.am      10 UNK        -0.4215 
     60 CA         33.8800   31.3619    4.8431 C.3       10 UNK         0.0240 
     61 CB         34.9864   32.0740    5.6421 C.3       10 UNK        -0.1982 
     62 C          34.4279   30.0938    4.1634 C.2       10 UNK         0.4970 
     63 O          34.6087   30.0778    2.9424 O.2       10 UNK        -0.4916 
     64 N          34.7148   29.0692    4.9774 N.am      11 UNK        -0.4279 
     65 CA         35.2414   27.7669    4.5334 C.3       11 UNK         0.1003 
     66 C          36.6498   27.8089    3.8701 C.2       11 UNK         0.5709 
     67 N          37.4536   28.8457    4.0765 N.am      11 UNK        -0.7358 
     68 O          37.0162   26.8794    3.1550 O.2       11 UNK        -0.4999 
     69 C69        35.2247   26.7133    5.6748 C.3       12 UNK        -0.0954 
     70 S70        33.5652   26.3868    6.3677 S.3       12 UNK        -0.2268 
     71 C71        33.2877   24.6377    5.9216 C.3       12 UNK         0.0203 
     72 H72        24.0012   18.2383    0.8775 H         1 UNK         0.0888 
     73 H73        23.9619   18.1734   -0.8854 H         1 UNK         0.0888 
     74 H74        24.8388   16.9401    0.0251 H         1 UNK         0.0888 
     75 H75        25.3780   19.8434    1.6039 H         1 UNK         0.3017 
     76 H76        28.0797   20.1055    0.5978 H         1 UNK         0.0873 
     77 H77        26.8271   22.0501    2.5990 H         1 UNK         0.0745 
     78 H78        27.1508   20.4152    3.0913 H         1 UNK         0.0745 
     79 H79        28.5326   23.8393    2.6913 H         1 UNK         0.0705 
     80 H80        28.7123   23.2167    4.3154 H         1 UNK         0.0705 
     81 H81        30.7774   23.6476    5.4985 H         1 UNK         0.1334 
     82 H82        34.1673   25.2349    3.4050 H         1 UNK         0.1417 
     83 H83        30.6554   24.0897    1.2401 H         1 UNK         0.1562 
     84 H84        33.2488   24.2484    0.2527 H         1 UNK         0.0748 
     85 H85        34.1457   25.5207    1.0430 H         1 UNK         0.0748 
     86 H86        33.0352   28.5769    0.0859 H         1 UNK         0.0940 
     87 H87        33.3374   27.7599    1.5748 H         1 UNK         0.0940 
     88 H88        31.6503   29.7260    1.5022 H         1 UNK         0.0703 
     89 H89        30.0903   27.8210   -0.0324 H         1 UNK         0.3081 
     90 H90        27.2404   29.9780   -0.2394 H         1 UNK         0.0719 
     91 H91        28.8070   30.3954   -2.1521 H         1 UNK         0.0809 
     92 H92        27.5326   29.2688   -2.5873 H         1 UNK         0.0809 
     93 H93        29.1565   28.6738   -2.2499 H         1 UNK         0.0809 
     94 H94        27.4180   27.2782   -1.0017 H         1 UNK         0.2990 
     95 H95        26.5222   25.7600    2.0953 H         1 UNK         0.0690 
     96 H96        24.5464   25.0224    0.7964 H         1 UNK         0.0788 
     97 H97        24.8164   26.3001   -0.3874 H         1 UNK         0.0788 
     98 H98        24.3936   26.7080    1.2680 H         1 UNK         0.0788 
     99 H99        27.6022   24.2892    0.9053 H         1 UNK         0.2993 
    100 H100       27.5888   23.2295   -2.3524 H         1 UNK         0.0949 
    101 H101       29.6137   24.6607   -2.6160 H         1 UNK         0.0767 
    102 H102       30.1600   24.2228   -1.0071 H         1 UNK         0.0767 
    103 H103       30.0619   22.9997   -2.2730 H         1 UNK         0.0767 
    104 H104       28.9909   22.1688   -0.1275 H         1 UNK         0.3013 
    105 H105       29.0008   28.5887    2.5995 H         1 UNK         0.3121 
    106 H106       30.0817   28.4303    5.3441 H         1 UNK         0.0774 
    107 H107       27.8799   26.5897    4.2529 H         1 UNK         0.0815 
    108 H108       29.5122   26.0845    4.6877 H         1 UNK         0.0815 
    109 H109       28.4214   26.6731    5.9263 H         1 UNK         0.0815 
    110 H110       28.7671   30.5054    3.4334 H         1 UNK         0.2987 
    111 H111       26.9072   31.6048    5.3775 H         1 UNK         0.0949 
    112 H112       25.3248   30.0658    4.2857 H         1 UNK         0.0806 
    113 H113       24.9558   31.7044    3.7767 H         1 UNK         0.0806 
    114 H114       25.8079   30.6158    2.6869 H         1 UNK         0.0806 
    115 H115       27.6560   31.8489    1.8603 H         1 UNK         0.3010 
    116 H116       27.5474   34.7694    1.9385 H         1 UNK         0.0829 
    117 H117       26.6841   33.5142   -0.0323 H         1 UNK         0.0813 
    118 H118       28.0217   34.5529   -0.4972 H         1 UNK         0.0813 
    119 H119       28.2812   32.8236   -0.3197 H         1 UNK         0.0813 
    120 H120       29.9953   32.2189    1.8297 H         1 UNK         0.3038 
    121 H121       32.1408   34.1800    2.4624 H         1 UNK         0.0769 
    122 H122       32.3277   31.7767    0.5415 H         1 UNK         0.0811 
    123 H123       33.6880   32.7593    1.0643 H         1 UNK         0.0811 
    124 H124       32.4265   33.4701    0.0725 H         1 UNK         0.0811 
    125 H125       34.0036   32.9463    3.4510 H         1 UNK         0.3204 
    126 H126       33.0823   31.0668    5.5288 H         1 UNK         0.0748 
    127 H127       35.3795   31.4342    6.4331 H         1 UNK         0.0771 
    128 H128       35.8254   32.3593    5.0059 H         1 UNK         0.0771 
    129 H129       34.6082   32.9772    6.1217 H         1 UNK         0.0771 
    130 H130       34.5307   29.1542    5.9654 H         1 UNK         0.2980 
    131 H131       34.5638   27.4225    3.7523 H         1 UNK         0.0545 
    132 H132       37.1600   29.6126    4.6590 H         1 UNK         0.3459 
    133 H133       38.3611   28.8611    3.6388 H         1 UNK         0.3459 
    134 H134       35.6527   25.7714    5.3281 H         1 UNK         0.0616 
    135 H135       35.8662   27.0425    6.4942 H         1 UNK         0.0616 
    136 H136       34.2321   24.0938    5.8844 H         1 UNK         0.0634 
    137 H137       32.7137   24.1776    6.7271 H         1 UNK         0.0634 
@<TRIPOS>BOND
     1    1    2 1    
     2    1   72 1    
     3    1   73 1    
     4    1   74 1    
     5    2    3 2    
     6    2    4 am   BACKBONE|DICT|INTERRES
     7    4    5 1    
     8    4   75 1    
     9    5    6 1    
    10    5   35 1    
    11    5   76 1    
    12    6    7 1    
    13    6   77 1    
    14    6   78 1    
    15    7    8 1    
    16    8    9 1    
    17    8   79 1    
    18    8   80 1    
    19    9   10 ar   
    20    9   14 ar   
    21   10   11 ar   
    22   10   81 1    
    23   11   12 ar   
    24   11   71 1    
    25   12   13 ar   
    26   12   82 1    
    27   13   14 ar   
    28   13   15 1    
    29   14   83 1    
    30   15   16 1    
    31   15   84 1    
    32   15   85 1    
    33   16   17 1    
    34   17   18 1    
    35   17   86 1    
    36   17   87 1    
    37   18   19 1    
    38   18   37 1    
    39   18   88 1    
    40   19   20 am   BACKBONE|DICT|INTERRES
    41   19   89 1    
    42   20   21 2    
    43   20   22 1    
    44   22   23 1    
    45   22   24 1    
    46   22   90 1    
    47   23   91 1    
    48   23   92 1    
    49   23   93 1    
    50   24   25 am   BACKBONE|DICT|INTERRES
    51   24   94 1    
    52   25   26 2    
    53   25   27 1    
    54   27   28 1    
    55   27   29 1    
    56   27   95 1    
    57   28   96 1    
    58   28   97 1    
    59   28   98 1    
    60   29   30 am   BACKBONE|DICT|INTERRES
    61   29   99 1    
    62   30   31 2    
    63   30   32 1    
    64   32   33 1    
    65   32   34 1    
    66   32  100 1    
    67   33  101 1    
    68   33  102 1    
    69   33  103 1    
    70   34   35 am   BACKBONE|DICT|INTERRES
    71   34  104 1    
    72   35   36 2    
    73   37   38 2    
    74   37   39 am   BACKBONE|DICT|INTERRES
    75   39   40 1    
    76   39  105 1    
    77   40   41 1    
    78   40   42 1    
    79   40  106 1    
    80   41  107 1    
    81   41  108 1    
    82   41  109 1    
    83   42   43 2    
    84   42   44 am   BACKBONE|DICT|INTERRES
    85   44   45 1    
    86   44  110 1    
    87   45   46 1    
    88   45   47 1    
    89   45  111 1    
    90   46  112 1    
    91   46  113 1    
    92   46  114 1    
    93   47   48 2    
    94   47   49 am   BACKBONE|DICT|INTERRES
    95   49   50 1    
    96   49  115 1    
    97   50   51 1    
    98   50   52 1    
    99   50  116 1    
   100   51  117 1    
   101   51  118 1    
   102   51  119 1    
   103   52   53 2    
   104   52   54 am   BACKBONE|DICT|INTERRES
   105   54   55 1    
   106   54  120 1    
   107   55   56 1    
   108   55   57 1    
   109   55  121 1    
   110   56  122 1    
   111   56  123 1    
   112   56  124 1    
   113   57   58 2    
   114   57   59 am   BACKBONE|DICT|INTERRES
   115   59   60 1    
   116   59  125 1    
   117   60   61 1    
   118   60   62 1    
   119   60  126 1    
   120   61  127 1    
   121   61  128 1    
   122   61  129 1    
   123   62   63 2    
   124   62   64 am   BACKBONE|DICT|INTERRES
   125   64   65 1    
   126   64  130 1    
   127   65   66 1    
   128   65   69 1    
   129   65  131 1    
   130   66   67 am   BACKBONE|DICT|INTERRES
   131   66   68 2    
   132   67  132 1    
   133   67  133 1    
   134   69   70 1    
   135   69  134 1    
   136   69  135 1    
   137   70   71 1    
   138   71  136 1    
   139   71  137 1    
@<TRIPOS>SUBSTRUCTURE
     1 UNK         1 GROUP             0       ****    0 ROOT    
