@<TRIPOS>MOLECULE
3R136
137   139    1
SMALL
USER_CHARGES


@<TRIPOS>ATOM
      1 CA         29.6318   25.0230    3.5075 C.3       0 UNK        -0.1979 
      2 C          29.0292   23.7688    2.8949 C.2       0 UNK         0.4864 
      3 O          27.9391   23.3546    3.2908 O.2       0 UNK        -0.5359 
      4 N          29.7351   23.1591    1.9322 N.am      1 UNK        -0.4318 
      5 CA         29.3141   21.9366    1.2310 C.3       1 UNK         0.0824 
      6 C6         30.4722   21.2749    0.4426 C.3       12 UNK        -0.0944 
      7 S7         31.8235   20.7013    1.5276 S.3       12 UNK        -0.2672 
      8 C8         33.2286   21.7183    0.9734 C.3       12 UNK         0.0333 
      9 C9         33.0823   23.1630    1.4227 C.ar      12 UNK        -0.0807 
     10 C10        33.4167   23.5265    2.7310 C.ar      12 UNK        -0.0894 
     11 C11        33.2684   24.8487    3.1587 C.ar      12 UNK        -0.0804 
     12 C12        32.7750   25.8069    2.2691 C.ar      12 UNK        -0.0824 
     13 C13        32.4351   25.4543    0.9604 C.ar      12 UNK        -0.0762 
     14 C14        32.6062   24.1340    0.5366 C.ar      12 UNK        -0.0782 
     15 C15        31.8906   26.5004    0.0028 C.3       12 UNK         0.0230 
     16 S16        30.1343   26.2112   -0.3815 S.3       12 UNK        -0.2608 
     17 C17        29.7863   27.6941   -1.3962 C.3       12 UNK        -0.0989 
     18 CA         28.7499   28.7155   -0.8447 C.3       5 UNK         0.0716 
     19 N          27.3850   28.4302   -1.2966 N.am      5 UNK        -0.4135 
     20 C          26.4644   29.3771   -1.5370 C.2       4 UNK         0.5031 
     21 O          26.6752   30.5842   -1.4158 O.2       4 UNK        -0.5229 
     22 CA         25.0703   28.9094   -1.9891 C.3       4 UNK         0.0329 
     23 CB         25.0391   28.7013   -3.5118 C.3       4 UNK        -0.2001 
     24 N          24.6345   27.6837   -1.3210 N.am      4 UNK        -0.4303 
     25 C          24.3184   27.5974   -0.0212 C.2       3 UNK         0.5044 
     26 O          24.2997   28.5586    0.7478 O.2       3 UNK        -0.5152 
     27 CA         24.0029   26.1895    0.5175 C.3       3 UNK         0.0319 
     28 CB         22.4966   25.9008    0.4177 C.3       3 UNK        -0.2001 
     29 N          24.7525   25.1130   -0.1448 N.am      3 UNK        -0.4354 
     30 C          26.0889   25.0211   -0.1685 C.2       2 UNK         0.4964 
     31 O          26.8417   25.8706    0.3117 O.2       2 UNK        -0.5047 
     32 CA         26.6930   23.8179   -0.8938 C.3       2 UNK         0.0288 
     33 CB         27.1133   24.2081   -2.3208 C.3       2 UNK        -0.2113 
     34 N          27.8706   23.3937   -0.1437 N.am      2 UNK        -0.4145 
     35 C          28.0931   22.1538    0.3098 C.2       1 UNK         0.5006 
     36 O          27.3746   21.1899    0.0365 O.2       1 UNK        -0.5103 
     37 C          28.7953   28.9409    0.6811 C.2       5 UNK         0.5055 
     38 O          29.5624   29.7866    1.1395 O.2       5 UNK        -0.5220 
     39 N          27.9374   28.2309    1.4329 N.am      6 UNK        -0.4450 
     40 CA         27.7807   28.3166    2.8897 C.3       6 UNK         0.0367 
     41 CB         26.7134   27.3090    3.3444 C.3       6 UNK        -0.1929 
     42 C          27.4373   29.7206    3.4217 C.2       6 UNK         0.5070 
     43 O          27.7218   30.0075    4.5843 O.2       6 UNK        -0.5237 
     44 N          26.8721   30.5818    2.5637 N.am      7 UNK        -0.4739 
     45 CA         26.6222   32.0022    2.8271 C.3       7 UNK         0.0276 
     46 CB         25.8329   32.5935    1.6482 C.3       7 UNK        -0.1927 
     47 C          27.9003   32.8270    3.0887 C.2       7 UNK         0.5013 
     48 O          27.8133   33.8745    3.7306 O.2       7 UNK        -0.5193 
     49 N          29.0545   32.3434    2.6118 N.am      8 UNK        -0.4253 
     50 CA         30.3797   32.9034    2.8630 C.3       8 UNK         0.0242 
     51 CB         30.7483   33.8950    1.7421 C.3       8 UNK        -0.2000 
     52 C          31.3674   31.7356    2.9981 C.2       8 UNK         0.4948 
     53 O          32.3255   31.6482    2.2285 O.2       8 UNK        -0.5275 
     54 N          31.0701   30.8311    3.9460 N.am      9 UNK        -0.4246 
     55 CA         31.7166   29.5258    4.1274 C.3       9 UNK         0.0261 
     56 CB         31.0784   28.8000    5.3245 C.3       9 UNK        -0.1959 
     57 C          33.2442   29.5668    4.2964 C.2       9 UNK         0.5033 
     58 O          33.9232   28.6846    3.7756 O.2       9 UNK        -0.5390 
     59 N          33.7523   30.5620    5.0371 N.am      10 UNK        -0.4215 
     60 CA         35.1669   30.8689    5.3140 C.3       10 UNK         0.0240 
     61 CB         35.9190   31.2098    4.0118 C.3       10 UNK        -0.1982 
     62 C          35.9516   29.8247    6.1393 C.2       10 UNK         0.4970 
     63 O          36.9180   30.2134    6.7972 O.2       10 UNK        -0.4916 
     64 N          35.5496   28.5475    6.1014 N.am      11 UNK        -0.4279 
     65 CA         36.1328   27.4242    6.8534 C.3       11 UNK         0.1003 
     66 C          36.1803   27.6670    8.3886 C.2       11 UNK         0.5709 
     67 N          37.2515   27.2525    9.0516 N.am      11 UNK        -0.7358 
     68 O          35.2362   28.1825    8.9855 O.2       11 UNK        -0.4999 
     69 C69        35.3980   26.0886    6.5597 C.3       12 UNK        -0.0954 
     70 S70        35.3662   25.6363    4.7917 S.3       12 UNK        -0.2268 
     71 C71        33.6037   25.2354    4.5906 C.3       12 UNK         0.0203 
     72 H72        30.5544   24.7817    4.0331 H         1 UNK         0.0888 
     73 H73        29.8470   25.7626    2.7366 H         1 UNK         0.0888 
     74 H74        28.9468   25.4711    4.2263 H         1 UNK         0.0888 
     75 H75        30.6420   23.5251    1.6724 H         1 UNK         0.3017 
     76 H76        28.9899   21.2270    1.9956 H         1 UNK         0.0873 
     77 H77        30.1111   20.3963   -0.0961 H         1 UNK         0.0745 
     78 H78        30.8576   21.9521   -0.3207 H         1 UNK         0.0745 
     79 H79        33.3261   21.6531   -0.1115 H         1 UNK         0.0705 
     80 H80        34.1485   21.3014    1.3862 H         1 UNK         0.0705 
     81 H81        33.7848   22.7775    3.4192 H         1 UNK         0.1334 
     82 H82        32.6493   26.8277    2.5991 H         1 UNK         0.1417 
     83 H83        32.3512   23.8639   -0.4795 H         1 UNK         0.1562 
     84 H84        32.4721   26.4839   -0.9203 H         1 UNK         0.0748 
     85 H85        32.0042   27.5005    0.4257 H         1 UNK         0.0748 
     86 H86        30.7273   28.2216   -1.5613 H         1 UNK         0.0940 
     87 H87        29.4882   27.3580   -2.3907 H         1 UNK         0.0940 
     88 H88        29.0313   29.6751   -1.2855 H         1 UNK         0.0703 
     89 H89        27.1216   27.4562   -1.3474 H         1 UNK         0.3081 
     90 H90        24.3596   29.7004   -1.7394 H         1 UNK         0.0719 
     91 H91        25.7138   27.9044   -3.8276 H         1 UNK         0.0809 
     92 H92        24.0363   28.4497   -3.8575 H         1 UNK         0.0809 
     93 H93        25.3410   29.6099   -4.0351 H         1 UNK         0.0809 
     94 H94        24.6051   26.8413   -1.8762 H         1 UNK         0.2990 
     95 H95        24.2808   26.1763    1.5731 H         1 UNK         0.0690 
     96 H96        21.9169   26.6751    0.9225 H         1 UNK         0.0788 
     97 H97        22.2420   24.9510    0.8885 H         1 UNK         0.0788 
     98 H98        22.1589   25.8646   -0.6188 H         1 UNK         0.0788 
     99 H99        24.2044   24.3837   -0.5790 H         1 UNK         0.2993 
    100 H100       25.9492   23.0193   -0.9389 H         1 UNK         0.0949 
    101 H101       26.2556   24.5406   -2.9069 H         1 UNK         0.0767 
    102 H102       27.8459   25.0166   -2.3206 H         1 UNK         0.0767 
    103 H103       27.5551   23.3606   -2.8452 H         1 UNK         0.0767 
    104 H104       28.4674   24.1473    0.1743 H         1 UNK         0.3013 
    105 H105       27.4035   27.4963    0.9725 H         1 UNK         0.3121 
    106 H106       28.7375   28.0273    3.3257 H         1 UNK         0.0774 
    107 H107       26.6463   27.2767    4.4326 H         1 UNK         0.0815 
    108 H108       25.7268   27.5765    2.9658 H         1 UNK         0.0815 
    109 H109       26.9391   26.2987    3.0039 H         1 UNK         0.0815 
    110 H110       26.6558   30.2470    1.6350 H         1 UNK         0.2987 
    111 H111       26.0052   32.0689    3.7257 H         1 UNK         0.0949 
    112 H112       25.5957   33.6438    1.8235 H         1 UNK         0.0806 
    113 H113       26.3981   32.5372    0.7167 H         1 UNK         0.0806 
    114 H114       24.8886   32.0691    1.4990 H         1 UNK         0.0806 
    115 H115       29.0486   31.4592    2.1075 H         1 UNK         0.3010 
    116 H116       30.3854   33.4373    3.8159 H         1 UNK         0.0829 
    117 H117       31.7392   34.3201    1.9064 H         1 UNK         0.0813 
    118 H118       30.7560   33.4106    0.7648 H         1 UNK         0.0813 
    119 H119       30.0424   34.7245    1.6993 H         1 UNK         0.0813 
    120 H120       30.2431   30.9943    4.5043 H         1 UNK         0.3038 
    121 H121       31.5056   28.9472    3.2255 H         1 UNK         0.0769 
    122 H122       31.5020   27.8040    5.4523 H         1 UNK         0.0811 
    123 H123       30.0047   28.6741    5.1962 H         1 UNK         0.0811 
    124 H124       31.2380   29.3423    6.2572 H         1 UNK         0.0811 
    125 H125       33.0888   31.2051    5.4464 H         1 UNK         0.3204 
    126 H126       35.1481   31.7746    5.9223 H         1 UNK         0.0748 
    127 H127       36.9313   31.5562    4.2241 H         1 UNK         0.0771 
    128 H128       36.0045   30.3446    3.3535 H         1 UNK         0.0771 
    129 H129       35.4139   32.0018    3.4585 H         1 UNK         0.0771 
    130 H130       34.8158   28.3128    5.4413 H         1 UNK         0.2980 
    131 H131       37.1611   27.3255    6.5006 H         1 UNK         0.0545 
    132 H132       37.2916   27.3865   10.0499 H         1 UNK         0.3459 
    133 H133       38.0245   26.8156    8.5737 H         1 UNK         0.3459 
    134 H134       34.3761   26.1349    6.9412 H         1 UNK         0.0616 
    135 H135       35.8805   25.2667    7.0921 H         1 UNK         0.0616 
    136 H136       33.0056   26.0948    4.8934 H         1 UNK         0.0634 
    137 H137       33.3396   24.4206    5.2665 H         1 UNK         0.0634 
@<TRIPOS>BOND
     1    1    2 1    
     2    1   72 1    
     3    1   73 1    
     4    1   74 1    
     5    2    3 2    
     6    2    4 am   BACKBONE|DICT|INTERRES
     7    4    5 1    
     8    4   75 1    
     9    5    6 1    
    10    5   35 1    
    11    5   76 1    
    12    6    7 1    
    13    6   77 1    
    14    6   78 1    
    15    7    8 1    
    16    8    9 1    
    17    8   79 1    
    18    8   80 1    
    19    9   10 ar   
    20    9   14 ar   
    21   10   11 ar   
    22   10   81 1    
    23   11   12 ar   
    24   11   71 1    
    25   12   13 ar   
    26   12   82 1    
    27   13   14 ar   
    28   13   15 1    
    29   14   83 1    
    30   15   16 1    
    31   15   84 1    
    32   15   85 1    
    33   16   17 1    
    34   17   18 1    
    35   17   86 1    
    36   17   87 1    
    37   18   19 1    
    38   18   37 1    
    39   18   88 1    
    40   19   20 am   BACKBONE|DICT|INTERRES
    41   19   89 1    
    42   20   21 2    
    43   20   22 1    
    44   22   23 1    
    45   22   24 1    
    46   22   90 1    
    47   23   91 1    
    48   23   92 1    
    49   23   93 1    
    50   24   25 am   BACKBONE|DICT|INTERRES
    51   24   94 1    
    52   25   26 2    
    53   25   27 1    
    54   27   28 1    
    55   27   29 1    
    56   27   95 1    
    57   28   96 1    
    58   28   97 1    
    59   28   98 1    
    60   29   30 am   BACKBONE|DICT|INTERRES
    61   29   99 1    
    62   30   31 2    
    63   30   32 1    
    64   32   33 1    
    65   32   34 1    
    66   32  100 1    
    67   33  101 1    
    68   33  102 1    
    69   33  103 1    
    70   34   35 am   BACKBONE|DICT|INTERRES
    71   34  104 1    
    72   35   36 2    
    73   37   38 2    
    74   37   39 am   BACKBONE|DICT|INTERRES
    75   39   40 1    
    76   39  105 1    
    77   40   41 1    
    78   40   42 1    
    79   40  106 1    
    80   41  107 1    
    81   41  108 1    
    82   41  109 1    
    83   42   43 2    
    84   42   44 am   BACKBONE|DICT|INTERRES
    85   44   45 1    
    86   44  110 1    
    87   45   46 1    
    88   45   47 1    
    89   45  111 1    
    90   46  112 1    
    91   46  113 1    
    92   46  114 1    
    93   47   48 2    
    94   47   49 am   BACKBONE|DICT|INTERRES
    95   49   50 1    
    96   49  115 1    
    97   50   51 1    
    98   50   52 1    
    99   50  116 1    
   100   51  117 1    
   101   51  118 1    
   102   51  119 1    
   103   52   53 2    
   104   52   54 am   BACKBONE|DICT|INTERRES
   105   54   55 1    
   106   54  120 1    
   107   55   56 1    
   108   55   57 1    
   109   55  121 1    
   110   56  122 1    
   111   56  123 1    
   112   56  124 1    
   113   57   58 2    
   114   57   59 am   BACKBONE|DICT|INTERRES
   115   59   60 1    
   116   59  125 1    
   117   60   61 1    
   118   60   62 1    
   119   60  126 1    
   120   61  127 1    
   121   61  128 1    
   122   61  129 1    
   123   62   63 2    
   124   62   64 am   BACKBONE|DICT|INTERRES
   125   64   65 1    
   126   64  130 1    
   127   65   66 1    
   128   65   69 1    
   129   65  131 1    
   130   66   67 am   BACKBONE|DICT|INTERRES
   131   66   68 2    
   132   67  132 1    
   133   67  133 1    
   134   69   70 1    
   135   69  134 1    
   136   69  135 1    
   137   70   71 1    
   138   71  136 1    
   139   71  137 1    
@<TRIPOS>SUBSTRUCTURE
     1 UNK         1 GROUP             0       ****    0 ROOT    
