@<TRIPOS>MOLECULE
3R136
137   139    1
SMALL
USER_CHARGES


@<TRIPOS>ATOM
      1 CA         30.2205   19.6646   -2.6109 C.3       0 UNK        -0.1979 
      2 C          29.9455   21.1603   -2.6600 C.2       0 UNK         0.4864 
      3 O          29.6416   21.6904   -3.7294 O.2       0 UNK        -0.5359 
      4 N          30.0533   21.8417   -1.5110 N.am      1 UNK        -0.4318 
      5 CA         29.8276   23.2864   -1.3639 C.3       1 UNK         0.0824 
      6 C6         30.3312   23.8157    0.0006 C.3       12 UNK        -0.0944 
      7 S7         32.1293   23.5967    0.2154 S.3       12 UNK        -0.2672 
      8 C8         32.2099   22.3841    1.5719 C.3       12 UNK         0.0333 
      9 C9         31.6700   22.9546    2.8756 C.ar      12 UNK        -0.0807 
     10 C10        32.4133   23.8997    3.5877 C.ar      12 UNK        -0.0894 
     11 C11        31.9234   24.4314    4.7840 C.ar      12 UNK        -0.0804 
     12 C12        30.6873   24.0016    5.2739 C.ar      12 UNK        -0.0824 
     13 C13        29.9251   23.0725    4.5592 C.ar      12 UNK        -0.0762 
     14 C14        30.4273   22.5432    3.3672 C.ar      12 UNK        -0.0782 
     15 C15        28.5572   22.6433    5.0698 C.3       12 UNK         0.0230 
     16 S16        27.4172   24.0510    5.2641 S.3       12 UNK        -0.2608 
     17 C17        27.2712   24.6967    3.5569 C.3       12 UNK        -0.0989 
     18 CA         28.0394   26.0225    3.3001 C.3       5 UNK         0.0716 
     19 N          27.8734   26.4722    1.9111 N.am      5 UNK        -0.4135 
     20 C          28.4092   27.5798    1.3654 C.2       4 UNK         0.5031 
     21 O          29.1640   28.3471    1.9695 O.2       4 UNK        -0.5229 
     22 CA         28.0414   27.9215   -0.0928 C.3       4 UNK         0.0329 
     23 CB         29.2428   27.7239   -1.0302 C.3       4 UNK        -0.2001 
     24 N          26.8844   27.1799   -0.6044 N.am      4 UNK        -0.4303 
     25 C          25.6132   27.4485   -0.2645 C.2       3 UNK         0.5044 
     26 O          25.2927   28.3822    0.4701 O.2       3 UNK        -0.5152 
     27 CA         24.5011   26.5332   -0.8150 C.3       3 UNK         0.0319 
     28 CB         23.7637   27.2250   -1.9731 C.3       3 UNK        -0.2001 
     29 N          24.9482   25.2104   -1.2598 N.am      3 UNK        -0.4354 
     30 C          25.5379   24.2838   -0.4927 C.2       2 UNK         0.4964 
     31 O          25.7971   24.4489    0.7000 O.2       2 UNK        -0.5047 
     32 CA         25.9684   22.9707   -1.1762 C.3       2 UNK         0.0288 
     33 CB         25.4543   22.8077   -2.6257 C.3       2 UNK        -0.2113 
     34 N          27.4255   22.8017   -1.1354 N.am      2 UNK        -0.4145 
     35 C          28.3498   23.6785   -1.5636 C.2       1 UNK         0.5006 
     36 O          28.0803   24.7639   -2.0827 O.2       1 UNK        -0.5103 
     37 C          27.6264   27.1401    4.2837 C.2       5 UNK         0.5055 
     38 O          26.4440   27.4818    4.3555 O.2       5 UNK        -0.5220 
     39 N          28.6254   27.7055    4.9777 N.am      6 UNK        -0.4450 
     40 CA         28.5470   28.8252    5.9251 C.3       6 UNK         0.0367 
     41 CB         27.7080   28.4363    7.1606 C.3       6 UNK        -0.1929 
     42 C          28.0927   30.1667    5.3084 C.2       6 UNK         0.5070 
     43 O          27.8015   31.0977    6.0610 O.2       6 UNK        -0.5237 
     44 N          28.0509   30.2616    3.9725 N.am      7 UNK        -0.4739 
     45 CA         27.6482   31.4590    3.2306 C.3       7 UNK         0.0276 
     46 CB         26.5306   31.0913    2.2434 C.3       7 UNK        -0.1927 
     47 C          28.8309   32.0979    2.4896 C.2       7 UNK         0.5013 
     48 O          28.8250   33.3153    2.2999 O.2       7 UNK        -0.5193 
     49 N          29.8218   31.2888    2.0859 N.am      8 UNK        -0.4253 
     50 CA         31.0725   31.7562    1.4837 C.3       8 UNK         0.0242 
     51 CB         31.8246   30.5548    0.8896 C.3       8 UNK        -0.2000 
     52 C          31.9543   32.5019    2.5004 C.2       8 UNK         0.4948 
     53 O          31.9173   32.1850    3.6929 O.2       8 UNK        -0.5275 
     54 N          32.7548   33.4572    2.0075 N.am      9 UNK        -0.4246 
     55 CA         33.7049   34.2485    2.7952 C.3       9 UNK         0.0261 
     56 CB         34.3346   35.3313    1.9020 C.3       9 UNK        -0.1959 
     57 C          34.7816   33.3513    3.4294 C.2       9 UNK         0.5033 
     58 O          35.5936   32.7785    2.7006 O.2       9 UNK        -0.5390 
     59 N          34.7225   33.2171    4.7627 N.am      10 UNK        -0.4215 
     60 CA         35.4989   32.2908    5.6008 C.3       10 UNK         0.0240 
     61 CB         37.0082   32.6145    5.5475 C.3       10 UNK        -0.1982 
     62 C          35.1947   30.8005    5.3243 C.2       10 UNK         0.4970 
     63 O          36.0237   29.9454    5.6416 O.2       10 UNK        -0.4916 
     64 N          34.0058   30.5164    4.7728 N.am      11 UNK        -0.4279 
     65 CA         33.5122   29.1926    4.3724 C.3       11 UNK         0.1003 
     66 C          34.2966   28.5491    3.1866 C.2       11 UNK         0.5709 
     67 N          33.9274   27.3435    2.7773 N.am      11 UNK        -0.7358 
     68 O          35.2011   29.1381    2.5985 O.2       11 UNK        -0.4999 
     69 C69        33.3127   28.2508    5.5966 C.3       12 UNK        -0.0954 
     70 S70        31.9094   27.1124    5.3636 S.3       12 UNK        -0.2268 
     71 C71        32.7140   25.4905    5.5319 C.3       12 UNK         0.0203 
     72 H72        31.0435   19.4128   -3.2792 H         1 UNK         0.0888 
     73 H73        30.4847   19.3302   -1.6078 H         1 UNK         0.0888 
     74 H74        29.3388   19.1105   -2.9318 H         1 UNK         0.0888 
     75 H75        30.3362   21.3543   -0.6738 H         1 UNK         0.3017 
     76 H76        30.3937   23.7892   -2.1514 H         1 UNK         0.0873 
     77 H77        30.1297   24.8818    0.1063 H         1 UNK         0.0745 
     78 H78        29.7890   23.3356    0.8150 H         1 UNK         0.0745 
     79 H79        31.6697   21.4805    1.2863 H         1 UNK         0.0705 
     80 H80        33.2493   22.0846    1.7142 H         1 UNK         0.0705 
     81 H81        33.3684   24.2275    3.1998 H         1 UNK         0.1334 
     82 H82        30.3022   24.4166    6.1958 H         1 UNK         0.1417 
     83 H83        29.8460   21.8162    2.8164 H         1 UNK         0.1562 
     84 H84        28.6787   22.1523    6.0362 H         1 UNK         0.0748 
     85 H85        28.1007   21.9073    4.4060 H         1 UNK         0.0748 
     86 H86        26.2082   24.8377    3.3517 H         1 UNK         0.0940 
     87 H87        27.6066   23.9316    2.8549 H         1 UNK         0.0940 
     88 H88        29.1038   25.8178    3.4346 H         1 UNK         0.0703 
     89 H89        27.2241   25.9305    1.3531 H         1 UNK         0.3081 
     90 H90        27.7960   28.9846   -0.1138 H         1 UNK         0.0719 
     91 H91        29.5360   26.6800   -1.1097 H         1 UNK         0.0809 
     92 H92        30.1135   28.2733   -0.6738 H         1 UNK         0.0809 
     93 H93        29.0226   28.0842   -2.0352 H         1 UNK         0.0809 
     94 H94        27.0787   26.3911   -1.2135 H         1 UNK         0.2990 
     95 H95        23.7886   26.3770   -0.0023 H         1 UNK         0.0690 
     96 H96        22.9069   26.6391   -2.3063 H         1 UNK         0.0788 
     97 H97        24.4189   27.3831   -2.8307 H         1 UNK         0.0788 
     98 H98        23.3852   28.2019   -1.6680 H         1 UNK         0.0788 
     99 H99        24.8150   24.9953   -2.2375 H         1 UNK         0.2993 
    100 H100       25.5396   22.1652   -0.5779 H         1 UNK         0.0949 
    101 H101       25.8664   23.5599   -3.2997 H         1 UNK         0.0767 
    102 H102       25.7284   21.8311   -3.0253 H         1 UNK         0.0767 
    103 H103       24.3662   22.8734   -2.6713 H         1 UNK         0.0767 
    104 H104       27.7539   21.9499   -0.7037 H         1 UNK         0.3013 
    105 H105       29.5642   27.3644    4.8112 H         1 UNK         0.3121 
    106 H106       29.5691   28.9945    6.2669 H         1 UNK         0.0774 
    107 H107       27.7755   29.1990    7.9372 H         1 UNK         0.0815 
    108 H108       26.6527   28.3193    6.9128 H         1 UNK         0.0815 
    109 H109       28.0562   27.5005    7.5977 H         1 UNK         0.0815 
    110 H110       28.3265   29.4544    3.4228 H         1 UNK         0.2987 
    111 H111       27.2529   32.2146    3.9131 H         1 UNK         0.0949 
    112 H112       26.8686   30.3678    1.5035 H         1 UNK         0.0806 
    113 H113       25.6710   30.6619    2.7584 H         1 UNK         0.0806 
    114 H114       26.1802   31.9715    1.7027 H         1 UNK         0.0806 
    115 H115       29.7415   30.2925    2.2540 H         1 UNK         0.3010 
    116 H116       30.8243   32.4460    0.6740 H         1 UNK         0.0829 
    117 H117       31.2873   30.1441    0.0361 H         1 UNK         0.0813 
    118 H118       32.8172   30.8390    0.5367 H         1 UNK         0.0813 
    119 H119       31.9529   29.7547    1.6183 H         1 UNK         0.0813 
    120 H120       32.7501   33.6277    1.0121 H         1 UNK         0.3038 
    121 H121       33.1450   34.7502    3.5874 H         1 UNK         0.0769 
    122 H122       33.5781   36.0071    1.5026 H         1 UNK         0.0811 
    123 H123       34.8766   34.8981    1.0602 H         1 UNK         0.0811 
    124 H124       35.0435   35.9377    2.4672 H         1 UNK         0.0811 
    125 H125       33.9936   33.7225    5.2491 H         1 UNK         0.3204 
    126 H126       35.1671   32.4699    6.6246 H         1 UNK         0.0748 
    127 H127       37.1957   33.6695    5.7473 H         1 UNK         0.0771 
    128 H128       37.5579   32.0424    6.2959 H         1 UNK         0.0771 
    129 H129       37.4410   32.3740    4.5760 H         1 UNK         0.0771 
    130 H130       33.3882   31.2833    4.5215 H         1 UNK         0.2980 
    131 H131       32.5274   29.4173    3.9616 H         1 UNK         0.0545 
    132 H132       33.1655   26.8644    3.2317 H         1 UNK         0.3459 
    133 H133       34.4064   26.9194    1.9991 H         1 UNK         0.3459 
    134 H134       34.2298   27.7079    5.8306 H         1 UNK         0.0616 
    135 H135       33.0819   28.8359    6.4882 H         1 UNK         0.0616 
    136 H136       32.7852   25.2291    6.5887 H         1 UNK         0.0634 
    137 H137       33.7359   25.5354    5.1523 H         1 UNK         0.0634 
@<TRIPOS>BOND
     1    1    2 1    
     2    1   72 1    
     3    1   73 1    
     4    1   74 1    
     5    2    3 2    
     6    2    4 am   BACKBONE|DICT|INTERRES
     7    4    5 1    
     8    4   75 1    
     9    5    6 1    
    10    5   35 1    
    11    5   76 1    
    12    6    7 1    
    13    6   77 1    
    14    6   78 1    
    15    7    8 1    
    16    8    9 1    
    17    8   79 1    
    18    8   80 1    
    19    9   10 ar   
    20    9   14 ar   
    21   10   11 ar   
    22   10   81 1    
    23   11   12 ar   
    24   11   71 1    
    25   12   13 ar   
    26   12   82 1    
    27   13   14 ar   
    28   13   15 1    
    29   14   83 1    
    30   15   16 1    
    31   15   84 1    
    32   15   85 1    
    33   16   17 1    
    34   17   18 1    
    35   17   86 1    
    36   17   87 1    
    37   18   19 1    
    38   18   37 1    
    39   18   88 1    
    40   19   20 am   BACKBONE|DICT|INTERRES
    41   19   89 1    
    42   20   21 2    
    43   20   22 1    
    44   22   23 1    
    45   22   24 1    
    46   22   90 1    
    47   23   91 1    
    48   23   92 1    
    49   23   93 1    
    50   24   25 am   BACKBONE|DICT|INTERRES
    51   24   94 1    
    52   25   26 2    
    53   25   27 1    
    54   27   28 1    
    55   27   29 1    
    56   27   95 1    
    57   28   96 1    
    58   28   97 1    
    59   28   98 1    
    60   29   30 am   BACKBONE|DICT|INTERRES
    61   29   99 1    
    62   30   31 2    
    63   30   32 1    
    64   32   33 1    
    65   32   34 1    
    66   32  100 1    
    67   33  101 1    
    68   33  102 1    
    69   33  103 1    
    70   34   35 am   BACKBONE|DICT|INTERRES
    71   34  104 1    
    72   35   36 2    
    73   37   38 2    
    74   37   39 am   BACKBONE|DICT|INTERRES
    75   39   40 1    
    76   39  105 1    
    77   40   41 1    
    78   40   42 1    
    79   40  106 1    
    80   41  107 1    
    81   41  108 1    
    82   41  109 1    
    83   42   43 2    
    84   42   44 am   BACKBONE|DICT|INTERRES
    85   44   45 1    
    86   44  110 1    
    87   45   46 1    
    88   45   47 1    
    89   45  111 1    
    90   46  112 1    
    91   46  113 1    
    92   46  114 1    
    93   47   48 2    
    94   47   49 am   BACKBONE|DICT|INTERRES
    95   49   50 1    
    96   49  115 1    
    97   50   51 1    
    98   50   52 1    
    99   50  116 1    
   100   51  117 1    
   101   51  118 1    
   102   51  119 1    
   103   52   53 2    
   104   52   54 am   BACKBONE|DICT|INTERRES
   105   54   55 1    
   106   54  120 1    
   107   55   56 1    
   108   55   57 1    
   109   55  121 1    
   110   56  122 1    
   111   56  123 1    
   112   56  124 1    
   113   57   58 2    
   114   57   59 am   BACKBONE|DICT|INTERRES
   115   59   60 1    
   116   59  125 1    
   117   60   61 1    
   118   60   62 1    
   119   60  126 1    
   120   61  127 1    
   121   61  128 1    
   122   61  129 1    
   123   62   63 2    
   124   62   64 am   BACKBONE|DICT|INTERRES
   125   64   65 1    
   126   64  130 1    
   127   65   66 1    
   128   65   69 1    
   129   65  131 1    
   130   66   67 am   BACKBONE|DICT|INTERRES
   131   66   68 2    
   132   67  132 1    
   133   67  133 1    
   134   69   70 1    
   135   69  134 1    
   136   69  135 1    
   137   70   71 1    
   138   71  136 1    
   139   71  137 1    
@<TRIPOS>SUBSTRUCTURE
     1 UNK         1 GROUP             0       ****    0 ROOT    
