@<TRIPOS>MOLECULE
3R136
137   139    1
SMALL
USER_CHARGES


@<TRIPOS>ATOM
      1 CA         27.9273   22.1002    2.3205 C.3       0 UNK        -0.1979 
      2 C          27.8558   23.0458    1.1316 C.2       0 UNK         0.4864 
      3 O          27.0104   23.9404    1.1401 O.2       0 UNK        -0.5359 
      4 N          28.7309   22.8246    0.1340 N.am      1 UNK        -0.4318 
      5 CA         28.9671   23.5657   -1.1211 C.3       1 UNK         0.0824 
      6 C6         30.2456   24.4469   -1.0947 C.3       12 UNK        -0.0944 
      7 S7         30.3250   25.6549    0.2612 S.3       12 UNK        -0.2672 
      8 C8         31.3566   24.7845    1.4793 C.3       12 UNK         0.0333 
      9 C9         31.3419   25.5403    2.7957 C.ar      12 UNK        -0.0807 
     10 C10        32.3828   26.4105    3.1275 C.ar      12 UNK        -0.0894 
     11 C11        32.3271   27.1651    4.3029 C.ar      12 UNK        -0.0804 
     12 C12        31.2118   27.0571    5.1392 C.ar      12 UNK        -0.0824 
     13 C13        30.1602   26.1932    4.8136 C.ar      12 UNK        -0.0762 
     14 C14        30.2510   25.4112    3.6580 C.ar      12 UNK        -0.0782 
     15 C15        28.9178   26.1396    5.6985 C.3       12 UNK         0.0230 
     16 S16        27.3416   26.1918    4.7697 S.3       12 UNK        -0.2608 
     17 C17        27.5532   27.6389    3.6697 C.3       12 UNK        -0.0989 
     18 CA         27.5365   27.2273    2.1686 C.3       5 UNK         0.0716 
     19 N          26.2783   26.6010    1.7450 N.am      5 UNK        -0.4135 
     20 C          25.0843   27.2096    1.6591 C.2       4 UNK         0.5031 
     21 O          24.8870   28.3743    2.0099 O.2       4 UNK        -0.5229 
     22 CA         23.9000   26.4241    1.0745 C.3       4 UNK         0.0329 
     23 CB         23.2897   27.1629   -0.1333 C.3       4 UNK        -0.2001 
     24 N          24.2506   25.0636    0.6704 N.am      4 UNK        -0.4303 
     25 C          23.4098   24.0226    0.6831 C.2       3 UNK         0.5044 
     26 O          22.2697   24.0672    1.1504 O.2       3 UNK        -0.5152 
     27 CA         23.9288   22.7205    0.0388 C.3       3 UNK         0.0319 
     28 CB         22.7947   21.7525   -0.3601 C.3       3 UNK        -0.2001 
     29 N          24.8273   22.9638   -1.0985 N.am      3 UNK        -0.4354 
     30 C          24.5660   23.6468   -2.2271 C.2       2 UNK         0.4964 
     31 O          23.4635   24.1210   -2.5037 O.2       2 UNK        -0.5047 
     32 CA         25.7336   23.8225   -3.2210 C.3       2 UNK         0.0288 
     33 CB         25.7067   25.1944   -3.9298 C.3       2 UNK        -0.2113 
     34 N          27.0490   23.5373   -2.6266 N.am      2 UNK        -0.4145 
     35 C          27.7227   24.2644   -1.7195 C.2       1 UNK         0.5006 
     36 O          27.3801   25.3841   -1.3275 O.2       1 UNK        -0.5103 
     37 C          27.9311   28.3714    1.2067 C.2       5 UNK         0.5055 
     38 O          28.2161   29.4842    1.6536 O.2       5 UNK        -0.5220 
     39 N          27.8888   28.0871   -0.1063 N.am      6 UNK        -0.4450 
     40 CA         28.1071   29.0626   -1.1787 C.3       6 UNK         0.0367 
     41 CB         27.7336   28.4347   -2.5300 C.3       6 UNK        -0.1929 
     42 C          29.5340   29.6331   -1.2246 C.2       6 UNK         0.5070 
     43 O          29.7002   30.8228   -1.4982 O.2       6 UNK        -0.5237 
     44 N          30.5400   28.7991   -0.9316 N.am      7 UNK        -0.4739 
     45 CA         31.9450   29.1977   -0.8188 C.3       7 UNK         0.0276 
     46 CB         32.8444   27.9980   -1.1718 C.3       7 UNK        -0.1927 
     47 C          32.2172   29.7487    0.5913 C.2       7 UNK         0.5013 
     48 O          32.9596   29.1369    1.3596 O.2       7 UNK        -0.5193 
     49 N          31.5722   30.8763    0.9174 N.am      8 UNK        -0.4253 
     50 CA         31.5284   31.5127    2.2373 C.3       8 UNK         0.0242 
     51 CB         30.3571   32.5130    2.2586 C.3       8 UNK        -0.2000 
     52 C          32.8615   32.1551    2.6772 C.2       8 UNK         0.4948 
     53 O          32.9241   33.3655    2.9050 O.2       8 UNK        -0.5275 
     54 N          33.9023   31.3263    2.8025 N.am      9 UNK        -0.4246 
     55 CA         35.1836   31.6469    3.4329 C.3       9 UNK         0.0261 
     56 CB         36.2209   30.6009    2.9849 C.3       9 UNK        -0.1959 
     57 C          35.0600   31.6821    4.9696 C.2       9 UNK         0.5033 
     58 O          34.0081   31.3485    5.5227 O.2       9 UNK        -0.5390 
     59 N          36.1519   32.0510    5.6506 N.am      10 UNK        -0.4215 
     60 CA         36.2591   32.1003    7.1139 C.3       10 UNK         0.0240 
     61 CB         37.4153   33.0451    7.4949 C.3       10 UNK        -0.1982 
     62 C          36.3993   30.6997    7.7529 C.2       10 UNK         0.4970 
     63 O          37.3733   30.4417    8.4631 O.2       10 UNK        -0.4916 
     64 N          35.4335   29.8159    7.4776 N.am      11 UNK        -0.4279 
     65 CA         35.3268   28.4659    8.0506 C.3       11 UNK         0.1003 
     66 C          34.9849   28.4938    9.5654 C.2       11 UNK         0.5709 
     67 N          35.4585   27.5160   10.3258 N.am      11 UNK        -0.7358 
     68 O          34.2658   29.3671   10.0491 O.2       11 UNK        -0.4999 
     69 C69        34.3105   27.5873    7.2736 C.3       12 UNK        -0.0954 
     70 S70        34.8076   27.3350    5.5365 S.3       12 UNK        -0.2268 
     71 C71        33.4493   28.1363    4.6319 C.3       12 UNK         0.0203 
     72 H72        27.9886   22.6697    3.2475 H         1 UNK         0.0888 
     73 H73        27.0302   21.4831    2.3607 H         1 UNK         0.0888 
     74 H74        28.7943   21.4417    2.2703 H         1 UNK         0.0888 
     75 H75        29.3473   22.0322    0.2457 H         1 UNK         0.3017 
     76 H76        29.2108   22.7736   -1.8316 H         1 UNK         0.0873 
     77 H77        31.1268   23.8065   -1.0335 H         1 UNK         0.0745 
     78 H78        30.3528   24.9896   -2.0358 H         1 UNK         0.0745 
     79 H79        30.9822   23.7715    1.6311 H         1 UNK         0.0705 
     80 H80        32.3737   24.6910    1.0958 H         1 UNK         0.0705 
     81 H81        33.2241   26.5249    2.4575 H         1 UNK         0.1334 
     82 H82        31.1548   27.6630    6.0330 H         1 UNK         0.1417 
     83 H83        29.4400   24.7466    3.3948 H         1 UNK         0.1562 
     84 H84        28.9195   26.9673    6.4095 H         1 UNK         0.0748 
     85 H85        28.9469   25.2243    6.2909 H         1 UNK         0.0748 
     86 H86        28.4882   28.1447    3.9165 H         1 UNK         0.0940 
     87 H87        26.7642   28.3609    3.8843 H         1 UNK         0.0940 
     88 H88        28.2956   26.4606    2.0354 H         1 UNK         0.0703 
     89 H89        26.3751   25.6235    1.4768 H         1 UNK         0.3081 
     90 H90        23.1522   26.3791    1.8689 H         1 UNK         0.0719 
     91 H91        22.9861   28.1762    0.1326 H         1 UNK         0.0809 
     92 H92        24.0025   27.2382   -0.9557 H         1 UNK         0.0809 
     93 H93        22.4032   26.6500   -0.5071 H         1 UNK         0.0809 
     94 H94        25.1790   24.9172    0.2914 H         1 UNK         0.2990 
     95 H95        24.5309   22.2279    0.8037 H         1 UNK         0.0690 
     96 H96        23.1907   20.8362   -0.7979 H         1 UNK         0.0788 
     97 H97        22.1141   22.2033   -1.0830 H         1 UNK         0.0788 
     98 H98        22.2017   21.4644    0.5088 H         1 UNK         0.0788 
     99 H99        25.7745   22.6396   -0.9691 H         1 UNK         0.2993 
    100 H100       25.5830   23.0603   -3.9872 H         1 UNK         0.0949 
    101 H101       25.6947   26.0182   -3.2163 H         1 UNK         0.0767 
    102 H102       26.5696   25.3249   -4.5826 H         1 UNK         0.0767 
    103 H103       24.8140   25.2950   -4.5482 H         1 UNK         0.0767 
    104 H104       27.4343   22.6373   -2.8803 H         1 UNK         0.3013 
    105 H105       27.6716   27.1362   -0.3973 H         1 UNK         0.3121 
    106 H106       27.4298   29.9001   -0.9984 H         1 UNK         0.0774 
    107 H107       28.3493   27.5625   -2.7539 H         1 UNK         0.0815 
    108 H108       26.6901   28.1210   -2.5430 H         1 UNK         0.0815 
    109 H109       27.8676   29.1480   -3.3443 H         1 UNK         0.0815 
    110 H110       30.3164   27.8494   -0.6599 H         1 UNK         0.2987 
    111 H111       32.1597   29.9941   -1.5350 H         1 UNK         0.0949 
    112 H112       32.6240   27.6144   -2.1679 H         1 UNK         0.0806 
    113 H113       33.8961   28.2866   -1.1595 H         1 UNK         0.0806 
    114 H114       32.7278   27.1780   -0.4630 H         1 UNK         0.0806 
    115 H115       30.9706   31.2778    0.2076 H         1 UNK         0.3010 
    116 H116       31.3035   30.7331    2.9689 H         1 UNK         0.0829 
    117 H117       30.4972   33.3140    1.5317 H         1 UNK         0.0813 
    118 H118       29.4107   32.0191    2.0365 H         1 UNK         0.0813 
    119 H119       30.2546   32.9756    3.2412 H         1 UNK         0.0813 
    120 H120       33.7493   30.3590    2.5276 H         1 UNK         0.3038 
    121 H121       35.5032   32.6338    3.0920 H         1 UNK         0.0769 
    122 H122       36.2692   30.5316    1.8978 H         1 UNK         0.0811 
    123 H123       35.9893   29.6077    3.3713 H         1 UNK         0.0811 
    124 H124       37.2223   30.8578    3.3315 H         1 UNK         0.0811 
    125 H125       36.9893   32.2794    5.1340 H         1 UNK         0.3204 
    126 H126       35.3393   32.5349    7.5117 H         1 UNK         0.0748 
    127 H127       38.3753   32.6781    7.1292 H         1 UNK         0.0771 
    128 H128       37.2610   34.0451    7.0890 H         1 UNK         0.0771 
    129 H129       37.4960   33.1483    8.5780 H         1 UNK         0.0771 
    130 H130       34.6755   30.1202    6.8750 H         1 UNK         0.2980 
    131 H131       36.3103   28.0017    7.9509 H         1 UNK         0.0545 
    132 H132       35.2358   27.5084   11.3089 H         1 UNK         0.3459 
    133 H133       36.0387   26.7880    9.9383 H         1 UNK         0.3459 
    134 H134       33.3109   28.0218    7.3223 H         1 UNK         0.0616 
    135 H135       34.2325   26.5990    7.7304 H         1 UNK         0.0616 
    136 H136       33.8563   28.5468    3.7097 H         1 UNK         0.0634 
    137 H137       33.0621   28.9849    5.1949 H         1 UNK         0.0634 
@<TRIPOS>BOND
     1    1    2 1    
     2    1   72 1    
     3    1   73 1    
     4    1   74 1    
     5    2    3 2    
     6    2    4 am   BACKBONE|DICT|INTERRES
     7    4    5 1    
     8    4   75 1    
     9    5    6 1    
    10    5   35 1    
    11    5   76 1    
    12    6    7 1    
    13    6   77 1    
    14    6   78 1    
    15    7    8 1    
    16    8    9 1    
    17    8   79 1    
    18    8   80 1    
    19    9   10 ar   
    20    9   14 ar   
    21   10   11 ar   
    22   10   81 1    
    23   11   12 ar   
    24   11   71 1    
    25   12   13 ar   
    26   12   82 1    
    27   13   14 ar   
    28   13   15 1    
    29   14   83 1    
    30   15   16 1    
    31   15   84 1    
    32   15   85 1    
    33   16   17 1    
    34   17   18 1    
    35   17   86 1    
    36   17   87 1    
    37   18   19 1    
    38   18   37 1    
    39   18   88 1    
    40   19   20 am   BACKBONE|DICT|INTERRES
    41   19   89 1    
    42   20   21 2    
    43   20   22 1    
    44   22   23 1    
    45   22   24 1    
    46   22   90 1    
    47   23   91 1    
    48   23   92 1    
    49   23   93 1    
    50   24   25 am   BACKBONE|DICT|INTERRES
    51   24   94 1    
    52   25   26 2    
    53   25   27 1    
    54   27   28 1    
    55   27   29 1    
    56   27   95 1    
    57   28   96 1    
    58   28   97 1    
    59   28   98 1    
    60   29   30 am   BACKBONE|DICT|INTERRES
    61   29   99 1    
    62   30   31 2    
    63   30   32 1    
    64   32   33 1    
    65   32   34 1    
    66   32  100 1    
    67   33  101 1    
    68   33  102 1    
    69   33  103 1    
    70   34   35 am   BACKBONE|DICT|INTERRES
    71   34  104 1    
    72   35   36 2    
    73   37   38 2    
    74   37   39 am   BACKBONE|DICT|INTERRES
    75   39   40 1    
    76   39  105 1    
    77   40   41 1    
    78   40   42 1    
    79   40  106 1    
    80   41  107 1    
    81   41  108 1    
    82   41  109 1    
    83   42   43 2    
    84   42   44 am   BACKBONE|DICT|INTERRES
    85   44   45 1    
    86   44  110 1    
    87   45   46 1    
    88   45   47 1    
    89   45  111 1    
    90   46  112 1    
    91   46  113 1    
    92   46  114 1    
    93   47   48 2    
    94   47   49 am   BACKBONE|DICT|INTERRES
    95   49   50 1    
    96   49  115 1    
    97   50   51 1    
    98   50   52 1    
    99   50  116 1    
   100   51  117 1    
   101   51  118 1    
   102   51  119 1    
   103   52   53 2    
   104   52   54 am   BACKBONE|DICT|INTERRES
   105   54   55 1    
   106   54  120 1    
   107   55   56 1    
   108   55   57 1    
   109   55  121 1    
   110   56  122 1    
   111   56  123 1    
   112   56  124 1    
   113   57   58 2    
   114   57   59 am   BACKBONE|DICT|INTERRES
   115   59   60 1    
   116   59  125 1    
   117   60   61 1    
   118   60   62 1    
   119   60  126 1    
   120   61  127 1    
   121   61  128 1    
   122   61  129 1    
   123   62   63 2    
   124   62   64 am   BACKBONE|DICT|INTERRES
   125   64   65 1    
   126   64  130 1    
   127   65   66 1    
   128   65   69 1    
   129   65  131 1    
   130   66   67 am   BACKBONE|DICT|INTERRES
   131   66   68 2    
   132   67  132 1    
   133   67  133 1    
   134   69   70 1    
   135   69  134 1    
   136   69  135 1    
   137   70   71 1    
   138   71  136 1    
   139   71  137 1    
@<TRIPOS>SUBSTRUCTURE
     1 UNK         1 GROUP             0       ****    0 ROOT    
