@<TRIPOS>MOLECULE
3R136
137   139    1
SMALL
USER_CHARGES


@<TRIPOS>ATOM
      1 CA         30.5992   22.7551   -1.5927 C.3       0 UNK        -0.1979 
      2 C          29.4451   21.9439   -1.0111 C.2       0 UNK         0.4864 
      3 O          28.9056   21.0870   -1.7094 O.2       0 UNK        -0.5359 
      4 N          29.0189   22.1676    0.2379 N.am      1 UNK        -0.4318 
      5 CA         29.4927   23.1726    1.1930 C.3       1 UNK         0.0824 
      6 C6         30.3284   22.5298    2.3378 C.3       12 UNK        -0.0944 
      7 S7         32.0747   22.3102    1.8570 S.3       12 UNK        -0.2672 
      8 C8         32.9287   23.5933    2.8427 C.3       12 UNK         0.0333 
      9 C9         32.2995   24.9763    2.7079 C.ar      12 UNK        -0.0807 
     10 C10        31.8746   25.6679    3.8468 C.ar      12 UNK        -0.0894 
     11 C11        31.2575   26.9237    3.7406 C.ar      12 UNK        -0.0804 
     12 C12        31.0673   27.4732    2.4688 C.ar      12 UNK        -0.0824 
     13 C13        31.4859   26.7916    1.3228 C.ar      12 UNK        -0.0762 
     14 C14        32.1273   25.5576    1.4500 C.ar      12 UNK        -0.0782 
     15 C15        31.1902   27.3502   -0.0573 C.3       12 UNK         0.0230 
     16 S16        29.7750   26.4520   -0.7519 S.3       12 UNK        -0.2608 
     17 C17        29.3674   27.3607   -2.2807 C.3       12 UNK        -0.0989 
     18 CA         27.9419   27.9916   -2.2572 C.3       5 UNK         0.0716 
     19 N          26.9261   27.0549   -1.7809 N.am      5 UNK        -0.4135 
     20 C          26.3032   26.1333   -2.5232 C.2       4 UNK         0.5031 
     21 O          26.4522   26.0288   -3.7420 O.2       4 UNK        -0.5229 
     22 CA         25.3788   25.1305   -1.8000 C.3       4 UNK         0.0329 
     23 CB         26.0053   23.7267   -1.8158 C.3       4 UNK        -0.2001 
     24 N          25.0829   25.4926   -0.4116 N.am      4 UNK        -0.4303 
     25 C          24.2818   26.4997   -0.0366 C.2       3 UNK         0.5044 
     26 O          23.6127   27.1650   -0.8276 O.2       3 UNK        -0.5152 
     27 CA         24.2230   26.8436    1.4655 C.3       3 UNK         0.0319 
     28 CB         22.8845   26.3882    2.0695 C.3       3 UNK        -0.2001 
     29 N          25.3188   26.2977    2.2761 N.am      3 UNK        -0.4354 
     30 C          26.6231   26.5666    2.1231 C.2       2 UNK         0.4964 
     31 O          27.0714   27.2881    1.2316 O.2       2 UNK        -0.5047 
     32 CA         27.6013   25.9246    3.1238 C.3       2 UNK         0.0288 
     33 CB         26.9283   25.2094    4.3179 C.3       2 UNK        -0.2113 
     34 N          28.5560   25.0375    2.4560 N.am      2 UNK        -0.4145 
     35 C          28.2751   23.9325    1.7502 C.2       1 UNK         0.5006 
     36 O          27.1312   23.5111    1.5495 O.2       1 UNK        -0.5103 
     37 C          27.7968   29.3201   -1.4875 C.2       5 UNK         0.5055 
     38 O          26.6697   29.7517   -1.2347 O.2       5 UNK        -0.5220 
     39 N          28.9221   29.9743   -1.1681 N.am      6 UNK        -0.4450 
     40 CA         28.9936   31.2997   -0.5431 C.3       6 UNK         0.0367 
     41 CB         30.4521   31.7880   -0.5857 C.3       6 UNK        -0.1929 
     42 C          28.4604   31.3748    0.8997 C.2       6 UNK         0.5070 
     43 O          28.1535   32.4758    1.3572 O.2       6 UNK        -0.5237 
     44 N          28.3890   30.2275    1.5931 N.am      7 UNK        -0.4739 
     45 CA         27.9480   30.0635    2.9864 C.3       7 UNK         0.0276 
     46 CB         26.4339   30.3343    3.1115 C.3       7 UNK        -0.1927 
     47 C          28.7859   30.8535    4.0153 C.2       7 UNK         0.5013 
     48 O          28.2673   31.2299    5.0677 O.2       7 UNK        -0.5193 
     49 N          30.0684   31.0764    3.7047 N.am      8 UNK        -0.4253 
     50 CA         31.0290   31.8239    4.5090 C.3       8 UNK         0.0242 
     51 CB         30.7913   33.3367    4.3249 C.3       8 UNK        -0.2000 
     52 C          32.4501   31.4309    4.0845 C.2       8 UNK         0.4948 
     53 O          32.6186   30.7103    3.0958 O.2       8 UNK        -0.5275 
     54 N          33.4412   31.9264    4.8386 N.am      9 UNK        -0.4246 
     55 CA         34.8928   31.8009    4.6464 C.3       9 UNK         0.0261 
     56 CB         35.3474   32.4192    3.3079 C.3       9 UNK        -0.1959 
     57 C          35.4286   30.3715    4.8245 C.2       9 UNK         0.5033 
     58 O          36.1858   30.1232    5.7637 O.2       9 UNK        -0.5390 
     59 N          35.0160   29.4514    3.9445 N.am      10 UNK        -0.4215 
     60 CA         35.4502   28.0489    3.9202 C.3       10 UNK         0.0240 
     61 CB         35.0065   27.4098    2.5975 C.3       10 UNK        -0.1982 
     62 C          34.9808   27.2201    5.1321 C.2       10 UNK         0.4970 
     63 O          35.5751   26.1794    5.4154 O.2       10 UNK        -0.4916 
     64 N          33.9575   27.7116    5.8409 N.am      11 UNK        -0.4279 
     65 CA         33.5184   27.2165    7.1528 C.3       11 UNK         0.1003 
     66 C          34.5014   27.5552    8.3151 C.2       11 UNK         0.5709 
     67 N          35.4864   28.4305    8.1398 N.am      11 UNK        -0.7358 
     68 O          34.3706   27.0005    9.4037 O.2       11 UNK        -0.4999 
     69 C69        32.0814   27.7062    7.4807 C.3       12 UNK        -0.0954 
     70 S70        30.7844   26.8298    6.5453 S.3       12 UNK        -0.2268 
     71 C71        30.7656   27.7216    4.9528 C.3       12 UNK         0.0203 
     72 H72        30.9699   22.2880   -2.5048 H         1 UNK         0.0888 
     73 H73        30.2659   23.7600   -1.8467 H         1 UNK         0.0888 
     74 H74        31.4361   22.8247   -0.9010 H         1 UNK         0.0888 
     75 H75        28.1976   21.6720    0.5581 H         1 UNK         0.3017 
     76 H76        30.0894   23.9233    0.6788 H         1 UNK         0.0873 
     77 H77        30.3023   23.1217    3.2545 H         1 UNK         0.0745 
     78 H78        29.9179   21.5574    2.6157 H         1 UNK         0.0745 
     79 H79        33.9713   23.6468    2.5268 H         1 UNK         0.0705 
     80 H80        32.9410   23.2747    3.8862 H         1 UNK         0.0705 
     81 H81        32.0308   25.2138    4.8143 H         1 UNK         0.1334 
     82 H82        30.5798   28.4316    2.3686 H         1 UNK         0.1417 
     83 H83        32.4484   25.0258    0.5643 H         1 UNK         0.1562 
     84 H84        32.0589   27.2350   -0.7074 H         1 UNK         0.0748 
     85 H85        30.9732   28.4167    0.0002 H         1 UNK         0.0748 
     86 H86        29.4050   26.6304   -3.0907 H         1 UNK         0.0940 
     87 H87        30.1458   28.0833   -2.5290 H         1 UNK         0.0940 
     88 H88        27.6948   28.2589   -3.2867 H         1 UNK         0.0703 
     89 H89        26.7503   27.0977   -0.7817 H         1 UNK         0.3081 
     90 H90        24.4384   25.0941   -2.3539 H         1 UNK         0.0719 
     91 H91        26.1894   23.3891   -2.8366 H         1 UNK         0.0809 
     92 H92        26.9612   23.7120   -1.2918 H         1 UNK         0.0809 
     93 H93        25.3528   22.9915   -1.3446 H         1 UNK         0.0809 
     94 H94        25.5926   24.9933    0.3063 H         1 UNK         0.2990 
     95 H95        24.2776   27.9316    1.5398 H         1 UNK         0.0690 
     96 H96        22.7814   26.7185    3.1033 H         1 UNK         0.0788 
     97 H97        22.7828   25.3023    2.0501 H         1 UNK         0.0788 
     98 H98        22.0423   26.8042    1.5144 H         1 UNK         0.0788 
     99 H99        25.0541   25.6697    3.0214 H         1 UNK         0.2993 
    100 H100       28.1895   26.7431    3.5335 H         1 UNK         0.0949 
    101 H101       27.6776   24.8505    5.0241 H         1 UNK         0.0767 
    102 H102       26.2760   25.8879    4.8694 H         1 UNK         0.0767 
    103 H103       26.3335   24.3491    4.0089 H         1 UNK         0.0767 
    104 H104       29.5233   25.3297    2.5141 H         1 UNK         0.3013 
    105 H105       29.8023   29.5578   -1.4299 H         1 UNK         0.3121 
    106 H106       28.3867   31.9807   -1.1437 H         1 UNK         0.0774 
    107 H107       30.5405   32.7909   -0.1651 H         1 UNK         0.0815 
    108 H108       31.1147   31.1382   -0.0120 H         1 UNK         0.0815 
    109 H109       30.8275   31.8364   -1.6080 H         1 UNK         0.0815 
    110 H110       28.5960   29.3706    1.0976 H         1 UNK         0.2987 
    111 H111       28.1078   29.0152    3.2283 H         1 UNK         0.0949 
    112 H112       26.1986   31.3878    2.9581 H         1 UNK         0.0806 
    113 H113       25.8680   29.7552    2.3818 H         1 UNK         0.0806 
    114 H114       26.0648   30.0580    4.0999 H         1 UNK         0.0806 
    115 H115       30.4506   30.7143    2.8406 H         1 UNK         0.3010 
    116 H116       30.9016   31.5534    5.5595 H         1 UNK         0.0829 
    117 H117       29.7850   33.6219    4.6324 H         1 UNK         0.0813 
    118 H118       31.4852   33.9292    4.9219 H         1 UNK         0.0813 
    119 H119       30.9158   33.6365    3.2834 H         1 UNK         0.0813 
    120 H120       33.1761   32.4785    5.6432 H         1 UNK         0.3038 
    121 H121       35.3449   32.3982    5.4402 H         1 UNK         0.0769 
    122 H122       36.4330   32.3770    3.2093 H         1 UNK         0.0811 
    123 H123       35.0582   33.4679    3.2407 H         1 UNK         0.0811 
    124 H124       34.9250   31.9030    2.4454 H         1 UNK         0.0811 
    125 H125       34.3124   29.7391    3.2685 H         1 UNK         0.3204 
    126 H126       36.5419   28.0412    3.9452 H         1 UNK         0.0748 
    127 H127       35.5127   27.8674    1.7476 H         1 UNK         0.0771 
    128 H128       35.2303   26.3422    2.5736 H         1 UNK         0.0771 
    129 H129       33.9355   27.5258    2.4465 H         1 UNK         0.0771 
    130 H130       33.5389   28.5719    5.5269 H         1 UNK         0.2980 
    131 H131       33.4967   26.1262    7.1009 H         1 UNK         0.0545 
    132 H132       36.1069   28.6233    8.9095 H         1 UNK         0.3459 
    133 H133       35.6285   28.9045    7.2546 H         1 UNK         0.3459 
    134 H134       31.8480   27.5356    8.5335 H         1 UNK         0.0616 
    135 H135       31.9872   28.7831    7.3304 H         1 UNK         0.0616 
    136 H136       29.7374   28.0343    4.7767 H         1 UNK         0.0634 
    137 H137       31.3486   28.6387    5.0320 H         1 UNK         0.0634 
@<TRIPOS>BOND
     1    1    2 1    
     2    1   72 1    
     3    1   73 1    
     4    1   74 1    
     5    2    3 2    
     6    2    4 am   BACKBONE|DICT|INTERRES
     7    4    5 1    
     8    4   75 1    
     9    5    6 1    
    10    5   35 1    
    11    5   76 1    
    12    6    7 1    
    13    6   77 1    
    14    6   78 1    
    15    7    8 1    
    16    8    9 1    
    17    8   79 1    
    18    8   80 1    
    19    9   10 ar   
    20    9   14 ar   
    21   10   11 ar   
    22   10   81 1    
    23   11   12 ar   
    24   11   71 1    
    25   12   13 ar   
    26   12   82 1    
    27   13   14 ar   
    28   13   15 1    
    29   14   83 1    
    30   15   16 1    
    31   15   84 1    
    32   15   85 1    
    33   16   17 1    
    34   17   18 1    
    35   17   86 1    
    36   17   87 1    
    37   18   19 1    
    38   18   37 1    
    39   18   88 1    
    40   19   20 am   BACKBONE|DICT|INTERRES
    41   19   89 1    
    42   20   21 2    
    43   20   22 1    
    44   22   23 1    
    45   22   24 1    
    46   22   90 1    
    47   23   91 1    
    48   23   92 1    
    49   23   93 1    
    50   24   25 am   BACKBONE|DICT|INTERRES
    51   24   94 1    
    52   25   26 2    
    53   25   27 1    
    54   27   28 1    
    55   27   29 1    
    56   27   95 1    
    57   28   96 1    
    58   28   97 1    
    59   28   98 1    
    60   29   30 am   BACKBONE|DICT|INTERRES
    61   29   99 1    
    62   30   31 2    
    63   30   32 1    
    64   32   33 1    
    65   32   34 1    
    66   32  100 1    
    67   33  101 1    
    68   33  102 1    
    69   33  103 1    
    70   34   35 am   BACKBONE|DICT|INTERRES
    71   34  104 1    
    72   35   36 2    
    73   37   38 2    
    74   37   39 am   BACKBONE|DICT|INTERRES
    75   39   40 1    
    76   39  105 1    
    77   40   41 1    
    78   40   42 1    
    79   40  106 1    
    80   41  107 1    
    81   41  108 1    
    82   41  109 1    
    83   42   43 2    
    84   42   44 am   BACKBONE|DICT|INTERRES
    85   44   45 1    
    86   44  110 1    
    87   45   46 1    
    88   45   47 1    
    89   45  111 1    
    90   46  112 1    
    91   46  113 1    
    92   46  114 1    
    93   47   48 2    
    94   47   49 am   BACKBONE|DICT|INTERRES
    95   49   50 1    
    96   49  115 1    
    97   50   51 1    
    98   50   52 1    
    99   50  116 1    
   100   51  117 1    
   101   51  118 1    
   102   51  119 1    
   103   52   53 2    
   104   52   54 am   BACKBONE|DICT|INTERRES
   105   54   55 1    
   106   54  120 1    
   107   55   56 1    
   108   55   57 1    
   109   55  121 1    
   110   56  122 1    
   111   56  123 1    
   112   56  124 1    
   113   57   58 2    
   114   57   59 am   BACKBONE|DICT|INTERRES
   115   59   60 1    
   116   59  125 1    
   117   60   61 1    
   118   60   62 1    
   119   60  126 1    
   120   61  127 1    
   121   61  128 1    
   122   61  129 1    
   123   62   63 2    
   124   62   64 am   BACKBONE|DICT|INTERRES
   125   64   65 1    
   126   64  130 1    
   127   65   66 1    
   128   65   69 1    
   129   65  131 1    
   130   66   67 am   BACKBONE|DICT|INTERRES
   131   66   68 2    
   132   67  132 1    
   133   67  133 1    
   134   69   70 1    
   135   69  134 1    
   136   69  135 1    
   137   70   71 1    
   138   71  136 1    
   139   71  137 1    
@<TRIPOS>SUBSTRUCTURE
     1 UNK         1 GROUP             0       ****    0 ROOT    
