@<TRIPOS>MOLECULE
3R136
137   139    1
SMALL
USER_CHARGES


@<TRIPOS>ATOM
      1 CA         32.1352   21.1170   -2.9049 C.3       0 UNK        -0.1979 
      2 C          31.0139   22.1420   -2.9897 C.2       0 UNK         0.4864 
      3 O          30.4868   22.3830   -4.0765 O.2       0 UNK        -0.5359 
      4 N          30.6469   22.7460   -1.8512 N.am      1 UNK        -0.4318 
      5 CA         29.5995   23.7723   -1.7445 C.3       1 UNK         0.0824 
      6 C6         29.6679   24.5414   -0.4018 C.3       12 UNK        -0.0944 
      7 S7         31.2999   25.2907   -0.0722 S.3       12 UNK        -0.2672 
      8 C8         31.8030   24.4449    1.4620 C.3       12 UNK         0.0333 
      9 C9         30.9876   24.9099    2.6612 C.ar      12 UNK        -0.0807 
     10 C10        31.3090   26.1093    3.3042 C.ar      12 UNK        -0.0894 
     11 C11        30.5673   26.5461    4.4058 C.ar      12 UNK        -0.0804 
     12 C12        29.4934   25.7753    4.8606 C.ar      12 UNK        -0.0824 
     13 C13        29.1575   24.5771    4.2220 C.ar      12 UNK        -0.0762 
     14 C14        29.9164   24.1433    3.1318 C.ar      12 UNK        -0.0782 
     15 C15        27.9675   23.7550    4.6979 C.3       12 UNK         0.0230 
     16 S16        26.4907   24.0421    3.6669 S.3       12 UNK        -0.2608 
     17 C17        26.1476   25.7999    4.0117 C.3       12 UNK        -0.0989 
     18 CA         26.6372   26.7215    2.8628 C.3       5 UNK         0.0716 
     19 N          25.8452   26.5151    1.6444 N.am      5 UNK        -0.4135 
     20 C          26.2065   26.8248    0.3943 C.2       4 UNK         0.5031 
     21 O          27.2829   27.3541    0.1108 O.2       4 UNK        -0.5229 
     22 CA         25.1850   26.5049   -0.7130 C.3       4 UNK         0.0329 
     23 CB         25.6592   26.9577   -2.1069 C.3       4 UNK        -0.2001 
     24 N          24.8430   25.0793   -0.7552 N.am      4 UNK        -0.4303 
     25 C          23.9535   24.4838    0.0544 C.2       3 UNK         0.5044 
     26 O          23.3831   25.0763    0.9724 O.2       3 UNK        -0.5152 
     27 CA         23.6161   23.0005   -0.1905 C.3       3 UNK         0.0319 
     28 CB         22.2303   22.8710   -0.8444 C.3       3 UNK        -0.2001 
     29 N          24.5975   22.3027   -1.0230 N.am      3 UNK        -0.4354 
     30 C          25.7690   21.8313   -0.5787 C.2       2 UNK         0.4964 
     31 O          26.1323   21.9007    0.5958 O.2       2 UNK        -0.5047 
     32 CA         26.7153   21.1855   -1.6100 C.3       2 UNK         0.0288 
     33 CB         26.1202   21.0371   -3.0305 C.3       2 UNK        -0.2113 
     34 N          27.9945   21.9017   -1.6504 N.am      2 UNK        -0.4145 
     35 C          28.1768   23.2025   -1.9331 C.2       1 UNK         0.5006 
     36 O          27.2715   23.9549   -2.2982 O.2       1 UNK        -0.5103 
     37 C          26.6909   28.2101    3.2824 C.2       5 UNK         0.5055 
     38 O          26.3400   28.5488    4.4148 O.2       5 UNK        -0.5220 
     39 N          27.1256   29.0781    2.3635 N.am      6 UNK        -0.4450 
     40 CA         27.4054   30.4903    2.6061 C.3       6 UNK         0.0367 
     41 CB         27.1503   31.2810    1.3128 C.3       6 UNK        -0.1929 
     42 C          28.8643   30.6500    3.0537 C.2       6 UNK         0.5070 
     43 O          29.7400   29.9521    2.5368 O.2       6 UNK        -0.5237 
     44 N          29.1068   31.5789    3.9847 N.am      7 UNK        -0.4739 
     45 CA         30.4515   31.9384    4.4349 C.3       7 UNK         0.0276 
     46 CB         30.3690   32.6042    5.8179 C.3       7 UNK        -0.1927 
     47 C          31.1412   32.8655    3.4216 C.2       7 UNK         0.5013 
     48 O          30.4813   33.7173    2.8201 O.2       7 UNK        -0.5193 
     49 N          32.4570   32.6976    3.2791 N.am      8 UNK        -0.4253 
     50 CA         33.3341   33.4793    2.4126 C.3       8 UNK         0.0242 
     51 CB         33.1792   33.0286    0.9418 C.3       8 UNK        -0.2000 
     52 C          34.7512   33.3399    2.9835 C.2       8 UNK         0.4948 
     53 O          34.9669   33.7207    4.1353 O.2       8 UNK        -0.5275 
     54 N          35.6799   32.7600    2.2087 N.am      9 UNK        -0.4246 
     55 CA         36.9853   32.3031    2.6992 C.3       9 UNK         0.0261 
     56 CB         37.8976   31.9609    1.5100 C.3       9 UNK        -0.1959 
     57 C          36.8442   31.0975    3.6481 C.2       9 UNK         0.5033 
     58 O          37.5639   31.0172    4.6447 O.2       9 UNK        -0.5390 
     59 N          35.8915   30.2071    3.3379 N.am      10 UNK        -0.4215 
     60 CA         35.4159   29.1513    4.2285 C.3       10 UNK         0.0240 
     61 CB         34.7664   28.0385    3.3898 C.3       10 UNK        -0.1982 
     62 C          34.3965   29.7311    5.2196 C.2       10 UNK         0.4970 
     63 O          33.6242   30.6170    4.8449 O.2       10 UNK        -0.4916 
     64 N          34.3970   29.1978    6.4460 N.am      11 UNK        -0.4279 
     65 CA         33.4988   29.5714    7.5555 C.3       11 UNK         0.1003 
     66 C          33.7181   31.0082    8.1241 C.2       11 UNK         0.5709 
     67 N          34.8105   31.6909    7.8025 N.am      11 UNK        -0.7358 
     68 O          32.9027   31.5031    8.8989 O.2       11 UNK        -0.4999 
     69 C69        31.9973   29.2743    7.2665 C.3       12 UNK        -0.0954 
     70 S70        31.6898   27.5624    6.7154 S.3       12 UNK        -0.2268 
     71 C71        30.9121   27.8560    5.0973 C.3       12 UNK         0.0203 
     72 H72        32.9677   21.4192   -3.5399 H         1 UNK         0.0888 
     73 H73        32.5093   21.0039   -1.8875 H         1 UNK         0.0888 
     74 H74        31.7815   20.1445   -3.2463 H         1 UNK         0.0888 
     75 H75        31.1368   22.5305   -0.9952 H         1 UNK         0.3017 
     76 H76        29.7597   24.4918   -2.5506 H         1 UNK         0.0873 
     77 H77        28.9363   25.3506   -0.3952 H         1 UNK         0.0745 
     78 H78        29.3888   23.8839    0.4212 H         1 UNK         0.0745 
     79 H79        32.8597   24.6478    1.6428 H         1 UNK         0.0705 
     80 H80        31.7202   23.3649    1.3314 H         1 UNK         0.0705 
     81 H81        32.1328   26.7054    2.9384 H         1 UNK         0.1334 
     82 H82        28.9176   26.1158    5.7103 H         1 UNK         0.1417 
     83 H83        29.6587   23.2138    2.6430 H         1 UNK         0.1562 
     84 H84        27.7347   23.9782    5.7404 H         1 UNK         0.0748 
     85 H85        28.2194   22.6940    4.6645 H         1 UNK         0.0748 
     86 H86        26.6146   26.0616    4.9623 H         1 UNK         0.0940 
     87 H87        25.0747   25.9234    4.1699 H         1 UNK         0.0940 
     88 H88        27.6690   26.4473    2.6322 H         1 UNK         0.0703 
     89 H89        24.9394   26.0740    1.7663 H         1 UNK         0.3081 
     90 H90        24.2811   27.0735   -0.4833 H         1 UNK         0.0719 
     91 H91        26.5925   26.4744   -2.3960 H         1 UNK         0.0809 
     92 H92        24.9152   26.7371   -2.8723 H         1 UNK         0.0809 
     93 H93        25.8342   28.0341   -2.1268 H         1 UNK         0.0809 
     94 H94        25.3504   24.5179   -1.4297 H         1 UNK         0.2990 
     95 H95        23.5750   22.5129    0.7861 H         1 UNK         0.0690 
     96 H96        21.9421   21.8260   -0.9605 H         1 UNK         0.0788 
     97 H97        22.2020   23.3399   -1.8289 H         1 UNK         0.0788 
     98 H98        21.4635   23.3499   -0.2335 H         1 UNK         0.0788 
     99 H99        24.3857   22.2156   -2.0068 H         1 UNK         0.2993 
    100 H100       26.9298   20.1831   -1.2358 H         1 UNK         0.0949 
    101 H101       25.8759   21.9979   -3.4849 H         1 UNK         0.0767 
    102 H102       26.8247   20.5349   -3.6939 H         1 UNK         0.0767 
    103 H103       25.2125   20.4322   -3.0175 H         1 UNK         0.0767 
    104 H104       28.7985   21.3782   -1.3352 H         1 UNK         0.3013 
    105 H105       27.4288   28.6973    1.4701 H         1 UNK         0.3121 
    106 H106       26.7415   30.8714    3.3854 H         1 UNK         0.0774 
    107 H107       27.3479   32.3437    1.4602 H         1 UNK         0.0815 
    108 H108       27.7914   30.9402    0.4985 H         1 UNK         0.0815 
    109 H109       26.1146   31.1847    0.9868 H         1 UNK         0.0815 
    110 H110       28.3464   32.1504    4.3241 H         1 UNK         0.2987 
    111 H111       31.0393   31.0231    4.5255 H         1 UNK         0.0949 
    112 H112       29.8071   33.5385    5.7848 H         1 UNK         0.0806 
    113 H113       29.8920   31.9492    6.5472 H         1 UNK         0.0806 
    114 H114       31.3660   32.8349    6.1968 H         1 UNK         0.0806 
    115 H115       32.9263   32.0045    3.8633 H         1 UNK         0.3010 
    116 H116       33.0628   34.5344    2.4886 H         1 UNK         0.0829 
    117 H117       32.1650   33.2072    0.5840 H         1 UNK         0.0813 
    118 H118       33.8451   33.5865    0.2820 H         1 UNK         0.0813 
    119 H119       33.3842   31.9649    0.8144 H         1 UNK         0.0813 
    120 H120       35.4319   32.5124    1.2615 H         1 UNK         0.3038 
    121 H121       37.4464   33.1187    3.2608 H         1 UNK         0.0769 
    122 H122       38.8803   31.6368    1.8556 H         1 UNK         0.0811 
    123 H123       38.0522   32.8275    0.8668 H         1 UNK         0.0811 
    124 H124       37.4864   31.1570    0.8983 H         1 UNK         0.0811 
    125 H125       35.3299   30.3822    2.5188 H         1 UNK         0.3204 
    126 H126       36.2620   28.7325    4.7777 H         1 UNK         0.0748 
    127 H127       33.9141   28.4092    2.8184 H         1 UNK         0.0771 
    128 H128       35.4781   27.6042    2.6873 H         1 UNK         0.0771 
    129 H129       34.4055   27.2296    4.0270 H         1 UNK         0.0771 
    130 H130       35.0677   28.4747    6.6617 H         1 UNK         0.2980 
    131 H131       33.7915   28.9170    8.3771 H         1 UNK         0.0545 
    132 H132       34.9436   32.6141    8.1831 H         1 UNK         0.3459 
    133 H133       35.4888   31.3045    7.1659 H         1 UNK         0.3459 
    134 H134       31.4006   29.4302    8.1668 H         1 UNK         0.0616 
    135 H135       31.6077   29.9742    6.5286 H         1 UNK         0.0616 
    136 H136       31.5821   28.4535    4.4768 H         1 UNK         0.0634 
    137 H137       30.0044   28.4466    5.2315 H         1 UNK         0.0634 
@<TRIPOS>BOND
     1    1    2 1    
     2    1   72 1    
     3    1   73 1    
     4    1   74 1    
     5    2    3 2    
     6    2    4 am   BACKBONE|DICT|INTERRES
     7    4    5 1    
     8    4   75 1    
     9    5    6 1    
    10    5   35 1    
    11    5   76 1    
    12    6    7 1    
    13    6   77 1    
    14    6   78 1    
    15    7    8 1    
    16    8    9 1    
    17    8   79 1    
    18    8   80 1    
    19    9   10 ar   
    20    9   14 ar   
    21   10   11 ar   
    22   10   81 1    
    23   11   12 ar   
    24   11   71 1    
    25   12   13 ar   
    26   12   82 1    
    27   13   14 ar   
    28   13   15 1    
    29   14   83 1    
    30   15   16 1    
    31   15   84 1    
    32   15   85 1    
    33   16   17 1    
    34   17   18 1    
    35   17   86 1    
    36   17   87 1    
    37   18   19 1    
    38   18   37 1    
    39   18   88 1    
    40   19   20 am   BACKBONE|DICT|INTERRES
    41   19   89 1    
    42   20   21 2    
    43   20   22 1    
    44   22   23 1    
    45   22   24 1    
    46   22   90 1    
    47   23   91 1    
    48   23   92 1    
    49   23   93 1    
    50   24   25 am   BACKBONE|DICT|INTERRES
    51   24   94 1    
    52   25   26 2    
    53   25   27 1    
    54   27   28 1    
    55   27   29 1    
    56   27   95 1    
    57   28   96 1    
    58   28   97 1    
    59   28   98 1    
    60   29   30 am   BACKBONE|DICT|INTERRES
    61   29   99 1    
    62   30   31 2    
    63   30   32 1    
    64   32   33 1    
    65   32   34 1    
    66   32  100 1    
    67   33  101 1    
    68   33  102 1    
    69   33  103 1    
    70   34   35 am   BACKBONE|DICT|INTERRES
    71   34  104 1    
    72   35   36 2    
    73   37   38 2    
    74   37   39 am   BACKBONE|DICT|INTERRES
    75   39   40 1    
    76   39  105 1    
    77   40   41 1    
    78   40   42 1    
    79   40  106 1    
    80   41  107 1    
    81   41  108 1    
    82   41  109 1    
    83   42   43 2    
    84   42   44 am   BACKBONE|DICT|INTERRES
    85   44   45 1    
    86   44  110 1    
    87   45   46 1    
    88   45   47 1    
    89   45  111 1    
    90   46  112 1    
    91   46  113 1    
    92   46  114 1    
    93   47   48 2    
    94   47   49 am   BACKBONE|DICT|INTERRES
    95   49   50 1    
    96   49  115 1    
    97   50   51 1    
    98   50   52 1    
    99   50  116 1    
   100   51  117 1    
   101   51  118 1    
   102   51  119 1    
   103   52   53 2    
   104   52   54 am   BACKBONE|DICT|INTERRES
   105   54   55 1    
   106   54  120 1    
   107   55   56 1    
   108   55   57 1    
   109   55  121 1    
   110   56  122 1    
   111   56  123 1    
   112   56  124 1    
   113   57   58 2    
   114   57   59 am   BACKBONE|DICT|INTERRES
   115   59   60 1    
   116   59  125 1    
   117   60   61 1    
   118   60   62 1    
   119   60  126 1    
   120   61  127 1    
   121   61  128 1    
   122   61  129 1    
   123   62   63 2    
   124   62   64 am   BACKBONE|DICT|INTERRES
   125   64   65 1    
   126   64  130 1    
   127   65   66 1    
   128   65   69 1    
   129   65  131 1    
   130   66   67 am   BACKBONE|DICT|INTERRES
   131   66   68 2    
   132   67  132 1    
   133   67  133 1    
   134   69   70 1    
   135   69  134 1    
   136   69  135 1    
   137   70   71 1    
   138   71  136 1    
   139   71  137 1    
@<TRIPOS>SUBSTRUCTURE
     1 UNK         1 GROUP             0       ****    0 ROOT    
