@<TRIPOS>MOLECULE
3R136
137   139    1
SMALL
USER_CHARGES


@<TRIPOS>ATOM
      1 CA         28.0347   23.9215   -3.3209 C.3       0 UNK        -0.1979 
      2 C          28.4754   24.1755   -1.8877 C.2       0 UNK         0.4864 
      3 O          27.8286   24.9536   -1.1859 O.2       0 UNK        -0.5359 
      4 N          29.5677   23.5286   -1.4586 N.am      1 UNK        -0.4318 
      5 CA         30.1431   23.5953   -0.1107 C.3       1 UNK         0.0824 
      6 C6         31.4949   22.8229   -0.0695 C.3       12 UNK        -0.0944 
      7 S7         32.2112   22.4841    1.5799 S.3       12 UNK        -0.2672 
      8 C8         33.2982   23.9215    1.8300 C.3       12 UNK         0.0333 
      9 C9         32.4934   25.1950    2.0326 C.ar      12 UNK        -0.0807 
     10 C10        31.7153   25.3517    3.1818 C.ar      12 UNK        -0.0894 
     11 C11        30.9511   26.5044    3.3693 C.ar      12 UNK        -0.0804 
     12 C12        30.9811   27.5132    2.4015 C.ar      12 UNK        -0.0824 
     13 C13        31.7554   27.3702    1.2416 C.ar      12 UNK        -0.0762 
     14 C14        32.5143   26.2083    1.0707 C.ar      12 UNK        -0.0782 
     15 C15        31.8212   28.4578    0.1682 C.3       12 UNK         0.0230 
     16 S16        30.2838   29.4076   -0.0660 S.3       12 UNK        -0.2608 
     17 C17        29.1671   28.1285   -0.7216 C.3       12 UNK        -0.0989 
     18 CA         27.7096   28.3688   -0.2713 C.3       5 UNK         0.0716 
     19 N          26.7863   27.5386   -1.0315 N.am      5 UNK        -0.4135 
     20 C          25.5714   27.9149   -1.4468 C.2       4 UNK         0.5031 
     21 O          25.1424   29.0676   -1.3787 O.2       4 UNK        -0.5229 
     22 CA         24.6671   26.8040   -2.0065 C.3       4 UNK         0.0329 
     23 CB         24.9738   26.5472   -3.4906 C.3       4 UNK        -0.2001 
     24 N          24.8006   25.5546   -1.2536 N.am      4 UNK        -0.4303 
     25 C          24.3834   25.3764    0.0074 C.2       3 UNK         0.5044 
     26 O          23.7659   26.2227    0.6547 O.2       3 UNK        -0.5152 
     27 CA         24.7343   24.0404    0.6679 C.3       3 UNK         0.0319 
     28 CB         24.8222   22.8549   -0.3175 C.3       3 UNK        -0.2001 
     29 N          26.0006   24.2069    1.3698 N.am      3 UNK        -0.4354 
     30 C          26.3914   23.5134    2.4437 C.2       2 UNK         0.4964 
     31 O          25.6974   22.6587    2.9987 O.2       2 UNK        -0.5047 
     32 CA         27.8055   23.8292    2.9704 C.3       2 UNK         0.0288 
     33 CB         28.3165   22.8076    4.0085 C.3       2 UNK        -0.2113 
     34 N          28.7863   24.0054    1.8919 N.am      2 UNK        -0.4145 
     35 C          29.1196   23.1156    0.9424 C.2       1 UNK         0.5006 
     36 O          28.6603   21.9731    0.8578 O.2       1 UNK        -0.5103 
     37 C          27.5025   28.0320    1.2145 C.2       5 UNK         0.5055 
     38 O          27.5307   26.8511    1.5734 O.2       5 UNK        -0.5220 
     39 N          27.2922   29.0660    2.0381 N.am      6 UNK        -0.4450 
     40 CA         26.9656   28.9309    3.4593 C.3       6 UNK         0.0367 
     41 CB         25.4522   29.1458    3.6412 C.3       6 UNK        -0.1929 
     42 C          27.7637   29.8787    4.3727 C.2       6 UNK         0.5070 
     43 O          27.6767   29.7177    5.5901 O.2       6 UNK        -0.5237 
     44 N          28.5038   30.8506    3.8161 N.am      7 UNK        -0.4739 
     45 CA         29.1684   31.9052    4.5920 C.3       7 UNK         0.0276 
     46 CB         28.1319   32.9454    5.0741 C.3       7 UNK        -0.1927 
     47 C          30.3284   32.5451    3.8111 C.2       7 UNK         0.5013 
     48 O          30.4081   33.7721    3.7248 O.2       7 UNK        -0.5193 
     49 N          31.2116   31.7122    3.2527 N.am      8 UNK        -0.4253 
     50 CA         32.4549   32.1188    2.5995 C.3       8 UNK         0.0242 
     51 CB         32.1829   32.5815    1.1550 C.3       8 UNK        -0.2000 
     52 C          33.4340   30.9408    2.6462 C.2       8 UNK         0.4948 
     53 O          33.0372   29.8406    3.0388 O.2       8 UNK        -0.5275 
     54 N          34.6919   31.1891    2.2524 N.am      9 UNK        -0.4246 
     55 CA         35.8054   30.2308    2.2164 C.3       9 UNK         0.0261 
     56 CB         35.6100   29.2180    1.0636 C.3       9 UNK        -0.1959 
     57 C          36.0263   29.5786    3.5952 C.2       9 UNK         0.5033 
     58 O          36.3680   30.2888    4.5430 O.2       9 UNK        -0.5390 
     59 N          35.7774   28.2657    3.7000 N.am      10 UNK        -0.4215 
     60 CA         35.8090   27.4866    4.9416 C.3       10 UNK         0.0240 
     61 CB         35.5622   26.0060    4.6083 C.3       10 UNK        -0.1982 
     62 C          34.8038   27.9657    6.0071 C.2       10 UNK         0.4970 
     63 O          35.0589   27.7701    7.1962 O.2       10 UNK        -0.4916 
     64 N          33.7044   28.5890    5.5679 N.am      11 UNK        -0.4279 
     65 CA         32.6780   29.2086    6.4150 C.3       11 UNK         0.1003 
     66 C          32.8426   30.7525    6.5352 C.2       11 UNK         0.5709 
     67 N          33.9389   31.3520    6.0820 N.am      11 UNK        -0.7358 
     68 O          31.9650   31.4266    7.0683 O.2       11 UNK        -0.4999 
     69 C69        31.2545   28.7992    5.9543 C.3       12 UNK        -0.0954 
     70 S70        30.9850   27.0021    6.1111 S.3       12 UNK        -0.2268 
     71 C71        30.0586   26.6254    4.5949 C.3       12 UNK         0.0203 
     72 H72        28.6420   23.1569   -3.8048 H         1 UNK         0.0888 
     73 H73        26.9966   23.5918   -3.3432 H         1 UNK         0.0888 
     74 H74        28.1161   24.8381   -3.9042 H         1 UNK         0.0888 
     75 H75        30.0285   22.8896   -2.0899 H         1 UNK         0.3017 
     76 H76        30.3549   24.6477    0.0859 H         1 UNK         0.0873 
     77 H77        32.2357   23.3461   -0.6761 H         1 UNK         0.0745 
     78 H78        31.3670   21.8478   -0.5430 H         1 UNK         0.0745 
     79 H79        33.9171   23.7463    2.7111 H         1 UNK         0.0705 
     80 H80        33.9840   24.0138    0.9864 H         1 UNK         0.0705 
     81 H81        31.6898   24.5650    3.9237 H         1 UNK         0.1334 
     82 H82        30.3975   28.4093    2.5514 H         1 UNK         0.1417 
     83 H83        33.1194   26.0890    0.1822 H         1 UNK         0.1562 
     84 H84        32.1008   28.0246   -0.7934 H         1 UNK         0.0748 
     85 H85        32.6128   29.1583    0.4278 H         1 UNK         0.0748 
     86 H86        29.5081   27.1320   -0.4329 H         1 UNK         0.0940 
     87 H87        29.2327   28.1640   -1.8102 H         1 UNK         0.0940 
     88 H88        27.4679   29.4205   -0.4409 H         1 UNK         0.0703 
     89 H89        27.0478   26.5544   -1.0906 H         1 UNK         0.3081 
     90 H90        23.6316   27.1413   -1.9240 H         1 UNK         0.0719 
     91 H91        25.9990   26.2077   -3.6399 H         1 UNK         0.0809 
     92 H92        24.3053   25.7953   -3.9104 H         1 UNK         0.0809 
     93 H93        24.8444   27.4580   -4.0769 H         1 UNK         0.0809 
     94 H94        25.3414   24.8180   -1.6828 H         1 UNK         0.2990 
     95 H95        23.9443   23.8292    1.3919 H         1 UNK         0.0690 
     96 H96        23.9254   22.7866   -0.9348 H         1 UNK         0.0788 
     97 H97        24.9138   21.9106    0.2195 H         1 UNK         0.0788 
     98 H98        25.6833   22.9334   -0.9815 H         1 UNK         0.0788 
     99 H99        26.6181   24.9327    1.0170 H         1 UNK         0.2993 
    100 H100       27.7219   24.7958    3.4685 H         1 UNK         0.0949 
    101 H101       29.3085   23.0755    4.3723 H         1 UNK         0.0767 
    102 H102       27.6541   22.7644    4.8738 H         1 UNK         0.0767 
    103 H103       28.3738   21.8020    3.5907 H         1 UNK         0.0767 
    104 H104       29.1794   24.9357    1.8288 H         1 UNK         0.3013 
    105 H105       27.2566   29.9974    1.6493 H         1 UNK         0.3121 
    106 H106       27.1924   27.9193    3.7997 H         1 UNK         0.0774 
    107 H107       25.1464   30.1450    3.3294 H         1 UNK         0.0815 
    108 H108       25.1602   29.0252    4.6853 H         1 UNK         0.0815 
    109 H109       24.8782   28.4224    3.0611 H         1 UNK         0.0815 
    110 H110       28.5863   30.9179    2.8120 H         1 UNK         0.2987 
    111 H111       29.6241   31.4551    5.4768 H         1 UNK         0.0949 
    112 H112       27.6299   33.4288    4.2354 H         1 UNK         0.0806 
    113 H113       27.3679   32.4912    5.7050 H         1 UNK         0.0806 
    114 H114       28.6068   33.7275    5.6680 H         1 UNK         0.0806 
    115 H115       31.1325   30.7113    3.3836 H         1 UNK         0.3010 
    116 H116       32.8993   32.9389    3.1678 H         1 UNK         0.0829 
    117 H117       31.4684   33.4042    1.1267 H         1 UNK         0.0813 
    118 H118       33.0949   32.9352    0.6733 H         1 UNK         0.0813 
    119 H119       31.7851   31.7750    0.5416 H         1 UNK         0.0813 
    120 H120       34.9287   32.1347    1.9864 H         1 UNK         0.3038 
    121 H121       36.7070   30.8067    2.0020 H         1 UNK         0.0769 
    122 H122       36.4770   28.5635    0.9643 H         1 UNK         0.0811 
    123 H123       34.7327   28.5875    1.2072 H         1 UNK         0.0811 
    124 H124       35.4901   29.7317    0.1097 H         1 UNK         0.0811 
    125 H125       35.4620   27.7811    2.8726 H         1 UNK         0.3204 
    126 H126       36.8096   27.5848    5.3673 H         1 UNK         0.0748 
    127 H127       35.6180   25.3890    5.5063 H         1 UNK         0.0771 
    128 H128       34.5747   25.8536    4.1707 H         1 UNK         0.0771 
    129 H129       36.3050   25.6242    3.9076 H         1 UNK         0.0771 
    130 H130       33.5853   28.7511    4.5718 H         1 UNK         0.2980 
    131 H131       32.7945   28.8447    7.4370 H         1 UNK         0.0545 
    132 H132       34.6893   30.8238    5.6528 H         1 UNK         0.3459 
    133 H133       34.0285   32.3489    6.1916 H         1 UNK         0.3459 
    134 H134       31.0840   29.1127    4.9241 H         1 UNK         0.0616 
    135 H135       30.4895   29.2914    6.5571 H         1 UNK         0.0616 
    136 H136       29.5291   25.6848    4.7461 H         1 UNK         0.0634 
    137 H137       29.2948   27.3843    4.4441 H         1 UNK         0.0634 
@<TRIPOS>BOND
     1    1    2 1    
     2    1   72 1    
     3    1   73 1    
     4    1   74 1    
     5    2    3 2    
     6    2    4 am   BACKBONE|DICT|INTERRES
     7    4    5 1    
     8    4   75 1    
     9    5    6 1    
    10    5   35 1    
    11    5   76 1    
    12    6    7 1    
    13    6   77 1    
    14    6   78 1    
    15    7    8 1    
    16    8    9 1    
    17    8   79 1    
    18    8   80 1    
    19    9   10 ar   
    20    9   14 ar   
    21   10   11 ar   
    22   10   81 1    
    23   11   12 ar   
    24   11   71 1    
    25   12   13 ar   
    26   12   82 1    
    27   13   14 ar   
    28   13   15 1    
    29   14   83 1    
    30   15   16 1    
    31   15   84 1    
    32   15   85 1    
    33   16   17 1    
    34   17   18 1    
    35   17   86 1    
    36   17   87 1    
    37   18   19 1    
    38   18   37 1    
    39   18   88 1    
    40   19   20 am   BACKBONE|DICT|INTERRES
    41   19   89 1    
    42   20   21 2    
    43   20   22 1    
    44   22   23 1    
    45   22   24 1    
    46   22   90 1    
    47   23   91 1    
    48   23   92 1    
    49   23   93 1    
    50   24   25 am   BACKBONE|DICT|INTERRES
    51   24   94 1    
    52   25   26 2    
    53   25   27 1    
    54   27   28 1    
    55   27   29 1    
    56   27   95 1    
    57   28   96 1    
    58   28   97 1    
    59   28   98 1    
    60   29   30 am   BACKBONE|DICT|INTERRES
    61   29   99 1    
    62   30   31 2    
    63   30   32 1    
    64   32   33 1    
    65   32   34 1    
    66   32  100 1    
    67   33  101 1    
    68   33  102 1    
    69   33  103 1    
    70   34   35 am   BACKBONE|DICT|INTERRES
    71   34  104 1    
    72   35   36 2    
    73   37   38 2    
    74   37   39 am   BACKBONE|DICT|INTERRES
    75   39   40 1    
    76   39  105 1    
    77   40   41 1    
    78   40   42 1    
    79   40  106 1    
    80   41  107 1    
    81   41  108 1    
    82   41  109 1    
    83   42   43 2    
    84   42   44 am   BACKBONE|DICT|INTERRES
    85   44   45 1    
    86   44  110 1    
    87   45   46 1    
    88   45   47 1    
    89   45  111 1    
    90   46  112 1    
    91   46  113 1    
    92   46  114 1    
    93   47   48 2    
    94   47   49 am   BACKBONE|DICT|INTERRES
    95   49   50 1    
    96   49  115 1    
    97   50   51 1    
    98   50   52 1    
    99   50  116 1    
   100   51  117 1    
   101   51  118 1    
   102   51  119 1    
   103   52   53 2    
   104   52   54 am   BACKBONE|DICT|INTERRES
   105   54   55 1    
   106   54  120 1    
   107   55   56 1    
   108   55   57 1    
   109   55  121 1    
   110   56  122 1    
   111   56  123 1    
   112   56  124 1    
   113   57   58 2    
   114   57   59 am   BACKBONE|DICT|INTERRES
   115   59   60 1    
   116   59  125 1    
   117   60   61 1    
   118   60   62 1    
   119   60  126 1    
   120   61  127 1    
   121   61  128 1    
   122   61  129 1    
   123   62   63 2    
   124   62   64 am   BACKBONE|DICT|INTERRES
   125   64   65 1    
   126   64  130 1    
   127   65   66 1    
   128   65   69 1    
   129   65  131 1    
   130   66   67 am   BACKBONE|DICT|INTERRES
   131   66   68 2    
   132   67  132 1    
   133   67  133 1    
   134   69   70 1    
   135   69  134 1    
   136   69  135 1    
   137   70   71 1    
   138   71  136 1    
   139   71  137 1    
@<TRIPOS>SUBSTRUCTURE
     1 UNK         1 GROUP             0       ****    0 ROOT    
