@<TRIPOS>MOLECULE
3R136
137   139    1
SMALL
USER_CHARGES


@<TRIPOS>ATOM
      1 CA         26.1814   19.1759    4.0929 C.3       0 UNK        -0.1979 
      2 C          26.6261   20.3760    3.2693 C.2       0 UNK         0.4864 
      3 O          26.1116   21.4766    3.4752 O.2       0 UNK        -0.5359 
      4 N          27.5758   20.1636    2.3460 N.am      1 UNK        -0.4318 
      5 CA         28.1453   21.1600    1.4256 C.3       1 UNK         0.0824 
      6 C6         28.9278   22.3020    2.1445 C.3       12 UNK        -0.0944 
      7 S7         30.1991   21.7087    3.3087 S.3       12 UNK        -0.2672 
      8 C8         31.6557   21.5568    2.2283 C.3       12 UNK         0.0333 
      9 C9         32.1814   22.9026    1.7439 C.ar      12 UNK        -0.0807 
     10 C10        32.8303   23.7653    2.6322 C.ar      12 UNK        -0.0894 
     11 C11        33.3898   24.9634    2.1782 C.ar      12 UNK        -0.0804 
     12 C12        33.2861   25.3021    0.8247 C.ar      12 UNK        -0.0824 
     13 C13        32.6358   24.4493   -0.0761 C.ar      12 UNK        -0.0762 
     14 C14        32.0799   23.2550    0.3942 C.ar      12 UNK        -0.0782 
     15 C15        32.6157   24.7504   -1.5729 C.3       12 UNK         0.0230 
     16 S16        32.1319   26.4569   -1.9873 S.3       12 UNK        -0.2608 
     17 C17        30.3332   26.4216   -1.6956 C.3       12 UNK        -0.0989 
     18 CA         29.8215   27.7819   -1.1588 C.3       5 UNK         0.0716 
     19 N          28.3921   27.9654   -1.4082 N.am      5 UNK        -0.4135 
     20 C          27.8149   29.1356   -1.7167 C.2       4 UNK         0.5031 
     21 O          28.4345   30.1877   -1.8767 O.2       4 UNK        -0.5229 
     22 CA         26.2847   29.1411   -1.8917 C.3       4 UNK         0.0329 
     23 CB         25.9137   28.9551   -3.3719 C.3       4 UNK        -0.2001 
     24 N          25.6109   28.1152   -1.0937 N.am      4 UNK        -0.4303 
     25 C          25.4857   28.1541    0.2400 C.2       3 UNK         0.5044 
     26 O          25.8481   29.1027    0.9343 O.2       3 UNK        -0.5152 
     27 CA         24.8699   26.9178    0.9198 C.3       3 UNK         0.0319 
     28 CB         23.3713   27.1406    1.1795 C.3       3 UNK        -0.2001 
     29 N          25.0525   25.6559    0.1886 N.am      3 UNK        -0.4354 
     30 C          26.2377   25.1018   -0.0970 C.2       2 UNK         0.4964 
     31 O          27.3249   25.6450    0.1190 O.2       2 UNK        -0.5047 
     32 CA         26.2293   23.7133   -0.7360 C.3       2 UNK         0.0288 
     33 CB         26.6207   23.7877   -2.2214 C.3       2 UNK        -0.2113 
     34 N          27.2190   22.9403    0.0005 N.am      2 UNK        -0.4145 
     35 C          27.0764   21.6835    0.4330 C.2       1 UNK         0.5006 
     36 O          26.1543   20.9446    0.0750 O.2       1 UNK        -0.5103 
     37 C          30.1093   27.9578    0.3405 C.2       5 UNK         0.5055 
     38 O          30.9305   28.7961    0.7141 O.2       5 UNK        -0.5220 
     39 N          29.3866   27.2035    1.1790 N.am      6 UNK        -0.4450 
     40 CA         29.5025   27.2062    2.6364 C.3       6 UNK         0.0367 
     41 CB         29.1006   25.8226    3.1751 C.3       6 UNK        -0.1929 
     42 C          28.7174   28.3597    3.2855 C.2       6 UNK         0.5070 
     43 O          28.0112   28.1550    4.2749 O.2       6 UNK        -0.5237 
     44 N          28.8647   29.5679    2.7313 N.am      7 UNK        -0.4739 
     45 CA         28.2405   30.8039    3.1994 C.3       7 UNK         0.0276 
     46 CB         28.1299   31.7853    2.0180 C.3       7 UNK        -0.1927 
     47 C          29.0067   31.3870    4.4011 C.2       7 UNK         0.5013 
     48 O          29.5732   32.4782    4.3025 O.2       7 UNK        -0.5193 
     49 N          29.0290   30.6232    5.5039 N.am      8 UNK        -0.4253 
     50 CA         29.6449   30.9208    6.8019 C.3       8 UNK         0.0242 
     51 CB         28.7774   31.9402    7.5748 C.3       8 UNK        -0.2000 
     52 C          31.1220   31.3376    6.6671 C.2       8 UNK         0.4948 
     53 O          31.9745   30.4796    6.4302 O.2       8 UNK        -0.5275 
     54 N          31.3874   32.6475    6.7765 N.am      9 UNK        -0.4246 
     55 CA         32.6994   33.2857    6.6404 C.3       9 UNK         0.0261 
     56 CB         32.5557   34.7908    6.9184 C.3       9 UNK        -0.1959 
     57 C          33.3955   33.0543    5.2862 C.2       9 UNK         0.5033 
     58 O          34.6169   33.1996    5.2210 O.2       9 UNK        -0.5390 
     59 N          32.6426   32.6632    4.2456 N.am      10 UNK        -0.4215 
     60 CA         33.1679   32.2624    2.9347 C.3       10 UNK         0.0240 
     61 CB         31.9990   31.9475    1.9909 C.3       10 UNK        -0.1982 
     62 C          34.1529   31.0765    2.9813 C.2       10 UNK         0.4970 
     63 O          35.0249   30.9975    2.1149 O.2       10 UNK        -0.4916 
     64 N          34.0257   30.2045    3.9917 N.am      11 UNK        -0.4279 
     65 CA         34.9914   29.1341    4.2862 C.3       11 UNK         0.1003 
     66 C          36.2623   29.6135    5.0504 C.2       11 UNK         0.5709 
     67 N          36.3869   30.8753    5.4464 N.am      11 UNK        -0.7358 
     68 O          37.1732   28.8202    5.2766 O.2       11 UNK        -0.4999 
     69 C69        34.3180   27.9326    5.0001 C.3       12 UNK        -0.0954 
     70 S70        33.1003   27.0896    3.9387 S.3       12 UNK        -0.2268 
     71 C71        34.1656   25.8541    3.1379 C.3       12 UNK         0.0203 
     72 H72        26.7188   18.2689    3.8167 H         1 UNK         0.0888 
     73 H73        26.3557   19.3632    5.1521 H         1 UNK         0.0888 
     74 H74        25.1164   18.9962    3.9487 H         1 UNK         0.0888 
     75 H75        27.9293   19.2253    2.2234 H         1 UNK         0.3017 
     76 H76        28.8614   20.6148    0.8092 H         1 UNK         0.0873 
     77 H77        28.2406   22.9336    2.7102 H         1 UNK         0.0745 
     78 H78        29.4158   22.9588    1.4243 H         1 UNK         0.0745 
     79 H79        31.4111   20.9065    1.3871 H         1 UNK         0.0705 
     80 H80        32.4462   21.0479    2.7818 H         1 UNK         0.0705 
     81 H81        32.9217   23.4898    3.6742 H         1 UNK         0.1334 
     82 H82        33.7375   26.2175    0.4669 H         1 UNK         0.1417 
     83 H83        31.6012   22.5773   -0.2997 H         1 UNK         0.1562 
     84 H84        31.9550   24.0622   -2.1027 H         1 UNK         0.0748 
     85 H85        33.6172   24.5736   -1.9672 H         1 UNK         0.0748 
     86 H86        30.0666   25.5964   -1.0317 H         1 UNK         0.0940 
     87 H87        29.8615   26.1968   -2.6536 H         1 UNK         0.0940 
     88 H88        30.3620   28.5705   -1.6878 H         1 UNK         0.0703 
     89 H89        27.8003   27.1653   -1.2235 H         1 UNK         0.3081 
     90 H90        25.9203   30.1189   -1.5687 H         1 UNK         0.0719 
     91 H91        26.3813   29.7230   -3.9901 H         1 UNK         0.0809 
     92 H92        26.2401   27.9867   -3.7535 H         1 UNK         0.0809 
     93 H93        24.8369   29.0316   -3.5241 H         1 UNK         0.0809 
     94 H94        25.2592   27.3058   -1.5840 H         1 UNK         0.2990 
     95 H95        25.3691   26.8074    1.8852 H         1 UNK         0.0690 
     96 H96        23.2052   28.0588    1.7451 H         1 UNK         0.0788 
     97 H97        22.9427   26.3240    1.7609 H         1 UNK         0.0788 
     98 H98        22.8081   27.2246    0.2492 H         1 UNK         0.0788 
     99 H99        24.2102   25.1466   -0.0396 H         1 UNK         0.2993 
    100 H100       25.2377   23.2665   -0.6331 H         1 UNK         0.0949 
    101 H101       26.6523   22.7943   -2.6694 H         1 UNK         0.0767 
    102 H102       25.8979   24.3765   -2.7876 H         1 UNK         0.0767 
    103 H103       27.6006   24.2469   -2.3610 H         1 UNK         0.0767 
    104 H104       27.9817   23.4991    0.3591 H         1 UNK         0.3013 
    105 H105       28.6691   26.5922    0.7927 H         1 UNK         0.3121 
    106 H106       30.5474   27.3663    2.8950 H         1 UNK         0.0774 
    107 H107       28.0665   25.5781    2.9299 H         1 UNK         0.0815 
    108 H108       29.7442   25.0455    2.7633 H         1 UNK         0.0815 
    109 H109       29.2029   25.7768    4.2599 H         1 UNK         0.0815 
    110 H110       29.5089   29.6441    1.9518 H         1 UNK         0.2987 
    111 H111       27.2254   30.5821    3.5369 H         1 UNK         0.0949 
    112 H112       27.6701   32.7237    2.3304 H         1 UNK         0.0806 
    113 H113       29.1034   32.0233    1.5913 H         1 UNK         0.0806 
    114 H114       27.5114   31.3721    1.2207 H         1 UNK         0.0806 
    115 H115       28.5909   29.7099    5.4229 H         1 UNK         0.3010 
    116 H116       29.6439   29.9887    7.3692 H         1 UNK         0.0829 
    117 H117       28.6405   32.8722    7.0252 H         1 UNK         0.0813 
    118 H118       27.7859   31.5328    7.7729 H         1 UNK         0.0813 
    119 H119       29.2189   32.1829    8.5426 H         1 UNK         0.0813 
    120 H120       30.6038   33.2671    6.9243 H         1 UNK         0.3038 
    121 H121       33.3474   32.8558    7.4069 H         1 UNK         0.0769 
    122 H122       31.8915   35.2718    6.1991 H         1 UNK         0.0811 
    123 H123       33.5219   35.2939    6.8564 H         1 UNK         0.0811 
    124 H124       32.1616   34.9756    7.9179 H         1 UNK         0.0811 
    125 H125       31.6375   32.5922    4.3767 H         1 UNK         0.3204 
    126 H126       33.7123   33.1176    2.5295 H         1 UNK         0.0748 
    127 H127       32.3574   31.6734    0.9976 H         1 UNK         0.0771 
    128 H128       31.4012   31.1137    2.3601 H         1 UNK         0.0771 
    129 H129       31.3442   32.8108    1.8731 H         1 UNK         0.0771 
    130 H130       33.2915   30.3393    4.6769 H         1 UNK         0.2980 
    131 H131       35.3711   28.7611    3.3333 H         1 UNK         0.0545 
    132 H132       37.2260   31.1502    5.9311 H         1 UNK         0.3459 
    133 H133       35.6699   31.5690    5.2599 H         1 UNK         0.3459 
    134 H134       33.8121   28.2669    5.9075 H         1 UNK         0.0616 
    135 H135       35.0563   27.1959    5.3220 H         1 UNK         0.0616 
    136 H136       34.9690   26.3645    2.6047 H         1 UNK         0.0634 
    137 H137       34.6456   25.2424    3.9034 H         1 UNK         0.0634 
@<TRIPOS>BOND
     1    1    2 1    
     2    1   72 1    
     3    1   73 1    
     4    1   74 1    
     5    2    3 2    
     6    2    4 am   BACKBONE|DICT|INTERRES
     7    4    5 1    
     8    4   75 1    
     9    5    6 1    
    10    5   35 1    
    11    5   76 1    
    12    6    7 1    
    13    6   77 1    
    14    6   78 1    
    15    7    8 1    
    16    8    9 1    
    17    8   79 1    
    18    8   80 1    
    19    9   10 ar   
    20    9   14 ar   
    21   10   11 ar   
    22   10   81 1    
    23   11   12 ar   
    24   11   71 1    
    25   12   13 ar   
    26   12   82 1    
    27   13   14 ar   
    28   13   15 1    
    29   14   83 1    
    30   15   16 1    
    31   15   84 1    
    32   15   85 1    
    33   16   17 1    
    34   17   18 1    
    35   17   86 1    
    36   17   87 1    
    37   18   19 1    
    38   18   37 1    
    39   18   88 1    
    40   19   20 am   BACKBONE|DICT|INTERRES
    41   19   89 1    
    42   20   21 2    
    43   20   22 1    
    44   22   23 1    
    45   22   24 1    
    46   22   90 1    
    47   23   91 1    
    48   23   92 1    
    49   23   93 1    
    50   24   25 am   BACKBONE|DICT|INTERRES
    51   24   94 1    
    52   25   26 2    
    53   25   27 1    
    54   27   28 1    
    55   27   29 1    
    56   27   95 1    
    57   28   96 1    
    58   28   97 1    
    59   28   98 1    
    60   29   30 am   BACKBONE|DICT|INTERRES
    61   29   99 1    
    62   30   31 2    
    63   30   32 1    
    64   32   33 1    
    65   32   34 1    
    66   32  100 1    
    67   33  101 1    
    68   33  102 1    
    69   33  103 1    
    70   34   35 am   BACKBONE|DICT|INTERRES
    71   34  104 1    
    72   35   36 2    
    73   37   38 2    
    74   37   39 am   BACKBONE|DICT|INTERRES
    75   39   40 1    
    76   39  105 1    
    77   40   41 1    
    78   40   42 1    
    79   40  106 1    
    80   41  107 1    
    81   41  108 1    
    82   41  109 1    
    83   42   43 2    
    84   42   44 am   BACKBONE|DICT|INTERRES
    85   44   45 1    
    86   44  110 1    
    87   45   46 1    
    88   45   47 1    
    89   45  111 1    
    90   46  112 1    
    91   46  113 1    
    92   46  114 1    
    93   47   48 2    
    94   47   49 am   BACKBONE|DICT|INTERRES
    95   49   50 1    
    96   49  115 1    
    97   50   51 1    
    98   50   52 1    
    99   50  116 1    
   100   51  117 1    
   101   51  118 1    
   102   51  119 1    
   103   52   53 2    
   104   52   54 am   BACKBONE|DICT|INTERRES
   105   54   55 1    
   106   54  120 1    
   107   55   56 1    
   108   55   57 1    
   109   55  121 1    
   110   56  122 1    
   111   56  123 1    
   112   56  124 1    
   113   57   58 2    
   114   57   59 am   BACKBONE|DICT|INTERRES
   115   59   60 1    
   116   59  125 1    
   117   60   61 1    
   118   60   62 1    
   119   60  126 1    
   120   61  127 1    
   121   61  128 1    
   122   61  129 1    
   123   62   63 2    
   124   62   64 am   BACKBONE|DICT|INTERRES
   125   64   65 1    
   126   64  130 1    
   127   65   66 1    
   128   65   69 1    
   129   65  131 1    
   130   66   67 am   BACKBONE|DICT|INTERRES
   131   66   68 2    
   132   67  132 1    
   133   67  133 1    
   134   69   70 1    
   135   69  134 1    
   136   69  135 1    
   137   70   71 1    
   138   71  136 1    
   139   71  137 1    
@<TRIPOS>SUBSTRUCTURE
     1 UNK         1 GROUP             0       ****    0 ROOT    
