@<TRIPOS>MOLECULE
3R136
137   139    1
SMALL
USER_CHARGES


@<TRIPOS>ATOM
      1 CA         29.0067   21.5784    7.1172 C.3       0 UNK        -0.1979 
      2 C          30.1199   22.5310    6.6869 C.2       0 UNK         0.4864 
      3 O          30.8382   23.0379    7.5462 O.2       0 UNK        -0.5359 
      4 N          30.3153   22.7975    5.3870 N.am      1 UNK        -0.4318 
      5 CA         29.5256   22.3084    4.2496 C.3       1 UNK         0.0824 
      6 C6         30.2400   22.5503    2.8968 C.3       12 UNK        -0.0944 
      7 S7         31.7949   21.6122    2.7770 S.3       12 UNK        -0.2672 
      8 C8         31.9565   21.4151    0.9703 C.3       12 UNK         0.0333 
      9 C9         32.3224   22.7112    0.2529 C.ar      12 UNK        -0.0807 
     10 C10        33.3937   23.4898    0.7039 C.ar      12 UNK        -0.0894 
     11 C11        33.7592   24.6569    0.0302 C.ar      12 UNK        -0.0804 
     12 C12        33.0723   25.0246   -1.1294 C.ar      12 UNK        -0.0824 
     13 C13        31.9988   24.2605   -1.5940 C.ar      12 UNK        -0.0762 
     14 C14        31.6218   23.1088   -0.8929 C.ar      12 UNK        -0.0782 
     15 C15        31.2780   24.6614   -2.8757 C.3       12 UNK         0.0230 
     16 S16        29.8997   25.8138   -2.5767 S.3       12 UNK        -0.2608 
     17 C17        30.7792   27.3513   -2.1375 C.3       12 UNK        -0.0989 
     18 CA         29.8300   28.5686   -2.0199 C.3       5 UNK         0.0716 
     19 N          28.7587   28.3472   -1.0448 N.am      5 UNK        -0.4135 
     20 C          27.6478   29.0915   -0.9412 C.2       4 UNK         0.5031 
     21 O          27.3916   30.0390   -1.6858 O.2       4 UNK        -0.5229 
     22 CA         26.6761   28.7389    0.2039 C.3       4 UNK         0.0329 
     23 CB         25.2234   29.1726   -0.0864 C.3       4 UNK        -0.2001 
     24 N          26.7382   27.3295    0.6130 N.am      4 UNK        -0.4303 
     25 C          26.4261   26.2458   -0.1152 C.2       3 UNK         0.5044 
     26 O          25.9888   26.2901   -1.2654 O.2       3 UNK        -0.5152 
     27 CA         26.6487   24.8732    0.5487 C.3       3 UNK         0.0319 
     28 CB         27.7185   24.0607   -0.2013 C.3       3 UNK        -0.2001 
     29 N          27.0446   24.9631    1.9567 N.am      3 UNK        -0.4354 
     30 C          26.2056   25.1126    2.9922 C.2       2 UNK         0.4964 
     31 O          24.9890   25.2580    2.8657 O.2       2 UNK        -0.5047 
     32 CA         26.8431   25.0965    4.3994 C.3       2 UNK         0.0288 
     33 CB         25.8382   24.7267    5.5112 C.3       2 UNK        -0.2113 
     34 N          28.0413   24.2491    4.4789 N.am      2 UNK        -0.4145 
     35 C          28.1212   22.9348    4.2115 C.2       1 UNK         0.5006 
     36 O          27.1566   22.2218    3.9331 O.2       1 UNK        -0.5103 
     37 C          30.6183   29.8526   -1.6888 C.2       5 UNK         0.5055 
     38 O          30.9267   30.6248   -2.5977 O.2       5 UNK        -0.5220 
     39 N          30.9017   30.0633   -0.3943 N.am      6 UNK        -0.4450 
     40 CA         31.4821   31.2986    0.1409 C.3       6 UNK         0.0367 
     41 CB         32.5891   30.9648    1.1536 C.3       6 UNK        -0.1929 
     42 C          30.4105   32.1653    0.8153 C.2       6 UNK         0.5070 
     43 O          30.4574   33.3879    0.6873 O.2       6 UNK        -0.5237 
     44 N          29.4927   31.5223    1.5564 N.am      7 UNK        -0.4739 
     45 CA         28.3720   32.0766    2.3388 C.3       7 UNK         0.0276 
     46 CB         27.3898   32.8582    1.4454 C.3       7 UNK        -0.1927 
     47 C          28.7923   32.9015    3.5720 C.2       7 UNK         0.5013 
     48 O          28.1502   32.7921    4.6163 O.2       7 UNK        -0.5193 
     49 N          29.8805   33.6706    3.4523 N.am      8 UNK        -0.4253 
     50 CA         30.5525   34.3874    4.5409 C.3       8 UNK         0.0242 
     51 CB         31.3863   35.5285    3.9339 C.3       8 UNK        -0.2000 
     52 C          31.4382   33.4751    5.4162 C.2       8 UNK         0.4948 
     53 O          31.9540   33.9373    6.4350 O.2       8 UNK        -0.5275 
     54 N          31.6095   32.2132    5.0082 N.am      9 UNK        -0.4246 
     55 CA         32.3426   31.1600    5.7019 C.3       9 UNK         0.0261 
     56 CB         33.7558   31.0480    5.1017 C.3       9 UNK        -0.1959 
     57 C          31.5616   29.8495    5.5382 C.2       9 UNK         0.5033 
     58 O          30.6335   29.7937    4.7252 O.2       9 UNK        -0.5390 
     59 N          31.9733   28.8108    6.2805 N.am      10 UNK        -0.4215 
     60 CA         31.3456   27.4800    6.3519 C.3       10 UNK         0.0240 
     61 CB         32.1430   26.6029    7.3298 C.3       10 UNK        -0.1982 
     62 C          31.1630   26.7457    5.0086 C.2       10 UNK         0.4970 
     63 O          30.2986   25.8734    4.9122 O.2       10 UNK        -0.4916 
     64 N          31.9464   27.1252    3.9935 N.am      11 UNK        -0.4279 
     65 CA         31.7421   26.7553    2.5866 C.3       11 UNK         0.1003 
     66 C          30.3898   27.2586    1.9994 C.2       11 UNK         0.5709 
     67 N          29.7810   28.3189    2.5211 N.am      11 UNK        -0.7358 
     68 O          29.8621   26.6710    1.0615 O.2       11 UNK        -0.4999 
     69 C69        32.9369   27.2290    1.7219 C.3       12 UNK        -0.0954 
     70 S70        34.4729   26.3337    2.1352 S.3       12 UNK        -0.2268 
     71 C71        34.8938   25.5245    0.5563 C.3       12 UNK         0.0203 
     72 H72        29.1183   21.3164    8.1692 H         1 UNK         0.0888 
     73 H73        28.0295   22.0450    6.9956 H         1 UNK         0.0888 
     74 H74        29.0299   20.6503    6.5478 H         1 UNK         0.0888 
     75 H75        31.0551   23.4402    5.1426 H         1 UNK         0.3017 
     76 H76        29.3952   21.2305    4.3614 H         1 UNK         0.0873 
     77 H77        30.4588   23.6093    2.7483 H         1 UNK         0.0745 
     78 H78        29.5962   22.2506    2.0669 H         1 UNK         0.0745 
     79 H79        32.7390   20.6815    0.7721 H         1 UNK         0.0705 
     80 H80        31.0333   20.9918    0.5714 H         1 UNK         0.0705 
     81 H81        33.9396   23.1943    1.5896 H         1 UNK         0.1334 
     82 H82        33.3683   25.9140   -1.6685 H         1 UNK         0.1417 
     83 H83        30.7966   22.5108   -1.2554 H         1 UNK         0.1562 
     84 H84        30.8839   23.7717   -3.3690 H         1 UNK         0.0748 
     85 H85        31.9800   25.1082   -3.5815 H         1 UNK         0.0748 
     86 H86        31.5451   27.5389   -2.8927 H         1 UNK         0.0940 
     87 H87        31.3022   27.1872   -1.1961 H         1 UNK         0.0940 
     88 H88        29.3603   28.7195   -2.9945 H         1 UNK         0.0703 
     89 H89        28.8981   27.5698   -0.4065 H         1 UNK         0.3081 
     90 H90        27.0136   29.3175    1.0641 H         1 UNK         0.0719 
     91 H91        24.8318   28.7010   -0.9881 H         1 UNK         0.0809 
     92 H92        24.5604   28.9185    0.7406 H         1 UNK         0.0809 
     93 H93        25.1584   30.2517   -0.2315 H         1 UNK         0.0809 
     94 H94        27.0813   27.1500    1.5446 H         1 UNK         0.2990 
     95 H95        25.7038   24.3297    0.4820 H         1 UNK         0.0690 
     96 H96        27.4787   23.9752   -1.2621 H         1 UNK         0.0788 
     97 H97        27.7956   23.0478    0.1941 H         1 UNK         0.0788 
     98 H98        28.7033   24.5234   -0.1272 H         1 UNK         0.0788 
     99 H99        28.0335   24.8841    2.1453 H         1 UNK         0.2993 
    100 H100       27.1821   26.1167    4.5873 H         1 UNK         0.0949 
    101 H101       25.4051   23.7383    5.3542 H         1 UNK         0.0767 
    102 H102       26.3135   24.7328    6.4922 H         1 UNK         0.0767 
    103 H103       25.0140   25.4403    5.5477 H         1 UNK         0.0767 
    104 H104       28.9054   24.7452    4.7001 H         1 UNK         0.3013 
    105 H105       30.6126   29.3629    0.2705 H         1 UNK         0.3121 
    106 H106       31.9288   31.8871   -0.6636 H         1 UNK         0.0774 
    107 H107       32.2027   30.4176    2.0139 H         1 UNK         0.0815 
    108 H108       33.0545   31.8754    1.5338 H         1 UNK         0.0815 
    109 H109       33.3784   30.3702    0.6938 H         1 UNK         0.0815 
    110 H110       29.6166   30.5277    1.6627 H         1 UNK         0.2987 
    111 H111       27.8329   31.2118    2.7294 H         1 UNK         0.0949 
    112 H112       27.8389   33.7639    1.0373 H         1 UNK         0.0806 
    113 H113       27.0444   32.2495    0.6094 H         1 UNK         0.0806 
    114 H114       26.5084   33.1624    2.0115 H         1 UNK         0.0806 
    115 H115       30.3028   33.7246    2.5283 H         1 UNK         0.3010 
    116 H116       29.7927   34.8243    5.1924 H         1 UNK         0.0829 
    117 H117       30.7624   36.2133    3.3591 H         1 UNK         0.0813 
    118 H118       31.8752   36.1152    4.7130 H         1 UNK         0.0813 
    119 H119       32.1664   35.1494    3.2723 H         1 UNK         0.0813 
    120 H120       31.0631   31.8832    4.2238 H         1 UNK         0.3038 
    121 H121       32.4071   31.3885    6.7679 H         1 UNK         0.0769 
    122 H122       33.7276   30.7759    4.0461 H         1 UNK         0.0811 
    123 H123       34.3500   30.2938    5.6186 H         1 UNK         0.0811 
    124 H124       34.2945   31.9921    5.1861 H         1 UNK         0.0811 
    125 H125       32.7564   28.9578    6.9016 H         1 UNK         0.3204 
    126 H126       30.3445   27.6240    6.7631 H         1 UNK         0.0748 
    127 H127       33.1680   26.4482    6.9901 H         1 UNK         0.0771 
    128 H128       32.1801   27.0466    8.3249 H         1 UNK         0.0771 
    129 H129       31.6837   25.6193    7.4363 H         1 UNK         0.0771 
    130 H130       32.6465   27.8285    4.1687 H         1 UNK         0.2980 
    131 H131       31.7025   25.6659    2.5366 H         1 UNK         0.0545 
    132 H132       28.8541   28.5470    2.2161 H         1 UNK         0.3459 
    133 H133       30.1604   28.7793    3.3497 H         1 UNK         0.3459 
    134 H134       32.7262   27.1190    0.6592 H         1 UNK         0.0616 
    135 H135       33.1228   28.2899    1.8788 H         1 UNK         0.0616 
    136 H136       35.1664   26.2916   -0.1702 H         1 UNK         0.0634 
    137 H137       35.7821   24.9082    0.7007 H         1 UNK         0.0634 
@<TRIPOS>BOND
     1    1    2 1    
     2    1   72 1    
     3    1   73 1    
     4    1   74 1    
     5    2    3 2    
     6    2    4 am   BACKBONE|DICT|INTERRES
     7    4    5 1    
     8    4   75 1    
     9    5    6 1    
    10    5   35 1    
    11    5   76 1    
    12    6    7 1    
    13    6   77 1    
    14    6   78 1    
    15    7    8 1    
    16    8    9 1    
    17    8   79 1    
    18    8   80 1    
    19    9   10 ar   
    20    9   14 ar   
    21   10   11 ar   
    22   10   81 1    
    23   11   12 ar   
    24   11   71 1    
    25   12   13 ar   
    26   12   82 1    
    27   13   14 ar   
    28   13   15 1    
    29   14   83 1    
    30   15   16 1    
    31   15   84 1    
    32   15   85 1    
    33   16   17 1    
    34   17   18 1    
    35   17   86 1    
    36   17   87 1    
    37   18   19 1    
    38   18   37 1    
    39   18   88 1    
    40   19   20 am   BACKBONE|DICT|INTERRES
    41   19   89 1    
    42   20   21 2    
    43   20   22 1    
    44   22   23 1    
    45   22   24 1    
    46   22   90 1    
    47   23   91 1    
    48   23   92 1    
    49   23   93 1    
    50   24   25 am   BACKBONE|DICT|INTERRES
    51   24   94 1    
    52   25   26 2    
    53   25   27 1    
    54   27   28 1    
    55   27   29 1    
    56   27   95 1    
    57   28   96 1    
    58   28   97 1    
    59   28   98 1    
    60   29   30 am   BACKBONE|DICT|INTERRES
    61   29   99 1    
    62   30   31 2    
    63   30   32 1    
    64   32   33 1    
    65   32   34 1    
    66   32  100 1    
    67   33  101 1    
    68   33  102 1    
    69   33  103 1    
    70   34   35 am   BACKBONE|DICT|INTERRES
    71   34  104 1    
    72   35   36 2    
    73   37   38 2    
    74   37   39 am   BACKBONE|DICT|INTERRES
    75   39   40 1    
    76   39  105 1    
    77   40   41 1    
    78   40   42 1    
    79   40  106 1    
    80   41  107 1    
    81   41  108 1    
    82   41  109 1    
    83   42   43 2    
    84   42   44 am   BACKBONE|DICT|INTERRES
    85   44   45 1    
    86   44  110 1    
    87   45   46 1    
    88   45   47 1    
    89   45  111 1    
    90   46  112 1    
    91   46  113 1    
    92   46  114 1    
    93   47   48 2    
    94   47   49 am   BACKBONE|DICT|INTERRES
    95   49   50 1    
    96   49  115 1    
    97   50   51 1    
    98   50   52 1    
    99   50  116 1    
   100   51  117 1    
   101   51  118 1    
   102   51  119 1    
   103   52   53 2    
   104   52   54 am   BACKBONE|DICT|INTERRES
   105   54   55 1    
   106   54  120 1    
   107   55   56 1    
   108   55   57 1    
   109   55  121 1    
   110   56  122 1    
   111   56  123 1    
   112   56  124 1    
   113   57   58 2    
   114   57   59 am   BACKBONE|DICT|INTERRES
   115   59   60 1    
   116   59  125 1    
   117   60   61 1    
   118   60   62 1    
   119   60  126 1    
   120   61  127 1    
   121   61  128 1    
   122   61  129 1    
   123   62   63 2    
   124   62   64 am   BACKBONE|DICT|INTERRES
   125   64   65 1    
   126   64  130 1    
   127   65   66 1    
   128   65   69 1    
   129   65  131 1    
   130   66   67 am   BACKBONE|DICT|INTERRES
   131   66   68 2    
   132   67  132 1    
   133   67  133 1    
   134   69   70 1    
   135   69  134 1    
   136   69  135 1    
   137   70   71 1    
   138   71  136 1    
   139   71  137 1    
@<TRIPOS>SUBSTRUCTURE
     1 UNK         1 GROUP             0       ****    0 ROOT    
