@<TRIPOS>MOLECULE
3R136
137   139    1
SMALL
USER_CHARGES


@<TRIPOS>ATOM
      1 CA         27.0259   21.2249   -0.3458 C.3       0 UNK        -0.1979 
      2 C          28.0219   22.2440    0.1858 C.2       0 UNK         0.4864 
      3 O          27.7312   23.4396    0.1834 O.2       0 UNK        -0.5359 
      4 N          29.1858   21.7825    0.6630 N.am      1 UNK        -0.4318 
      5 CA         30.3050   22.5890    1.1772 C.3       1 UNK         0.0824 
      6 C6         31.6345   21.7861    1.1275 C.3       12 UNK        -0.0944 
      7 S7         32.1364   21.4140   -0.5893 S.3       12 UNK        -0.2672 
      8 C8         33.4951   22.6034   -0.8572 C.3       12 UNK         0.0333 
      9 C9         33.0746   24.0343   -0.5495 C.ar      12 UNK        -0.0807 
     10 C10        33.5643   24.6816    0.5897 C.ar      12 UNK        -0.0894 
     11 C11        33.1379   25.9728    0.9116 C.ar      12 UNK        -0.0804 
     12 C12        32.2120   26.6151    0.0872 C.ar      12 UNK        -0.0824 
     13 C13        31.7323   25.9885   -1.0667 C.ar      12 UNK        -0.0762 
     14 C14        32.1760   24.7018   -1.3871 C.ar      12 UNK        -0.0782 
     15 C15        30.7349   26.7044   -1.9626 C.3       12 UNK         0.0230 
     16 S16        29.1094   25.8865   -1.9253 S.3       12 UNK        -0.2608 
     17 C17        27.9905   27.3021   -2.2100 C.3       12 UNK        -0.0989 
     18 CA         27.1961   27.7565   -0.9567 C.3       5 UNK         0.0716 
     19 N          26.2932   26.7344   -0.4493 N.am      5 UNK        -0.4135 
     20 C          25.0207   26.5499   -0.8045 C.2       4 UNK         0.5031 
     21 O          24.4937   27.0777   -1.7850 O.2       4 UNK        -0.5229 
     22 CA         24.1744   25.6707    0.1349 C.3       4 UNK         0.0329 
     23 CB         24.1718   24.2076   -0.3336 C.3       4 UNK        -0.2001 
     24 N          24.6214   25.7416    1.5323 N.am      4 UNK        -0.4303 
     25 C          24.5442   26.8280    2.3138 C.2       3 UNK         0.5044 
     26 O          24.0233   27.8846    1.9543 O.2       3 UNK        -0.5152 
     27 CA         25.1428   26.7429    3.7315 C.3       3 UNK         0.0319 
     28 CB         24.1598   26.0653    4.7060 C.3       3 UNK        -0.2001 
     29 N          26.4844   26.1465    3.8238 N.am      3 UNK        -0.4354 
     30 C          26.8629   24.8877    3.5693 C.2       2 UNK         0.4964 
     31 O          26.1099   24.0130    3.1332 O.2       2 UNK        -0.5047 
     32 CA         28.3180   24.5265    3.8843 C.3       2 UNK         0.0288 
     33 CB         28.3721   23.6971    5.1851 C.3       2 UNK        -0.2113 
     34 N          28.8418   23.7991    2.7321 N.am      2 UNK        -0.4145 
     35 C          30.0253   23.1979    2.5750 C.2       1 UNK         0.5006 
     36 O          30.8719   23.1105    3.4660 O.2       1 UNK        -0.5103 
     37 C          28.0737   28.1790    0.2367 C.2       5 UNK         0.5055 
     38 O          28.1884   27.4208    1.2056 O.2       5 UNK        -0.5220 
     39 N          28.6506   29.3827    0.1632 N.am      6 UNK        -0.4450 
     40 CA         29.4508   29.9673    1.2347 C.3       6 UNK         0.0367 
     41 CB         28.5632   30.8284    2.1570 C.3       6 UNK        -0.1929 
     42 C          30.6401   30.7157    0.6281 C.2       6 UNK         0.5070 
     43 O          31.6543   30.0844    0.3339 O.2       6 UNK        -0.5237 
     44 N          30.5129   32.0411    0.4699 N.am      7 UNK        -0.4739 
     45 CA         31.5375   33.0156    0.0581 C.3       7 UNK         0.0276 
     46 CB         32.1218   32.7030   -1.3345 C.3       7 UNK        -0.1927 
     47 C          32.6406   33.2024    1.1157 C.2       7 UNK         0.5013 
     48 O          32.8700   34.3300    1.5550 O.2       7 UNK        -0.5193 
     49 N          33.2623   32.0976    1.5435 N.am      8 UNK        -0.4253 
     50 CA         34.0848   32.0221    2.7469 C.3       8 UNK         0.0242 
     51 CB         35.0353   30.8191    2.6432 C.3       8 UNK        -0.2000 
     52 C          33.1583   31.8760    3.9616 C.2       8 UNK         0.4948 
     53 O          32.2759   31.0133    3.9464 O.2       8 UNK        -0.5275 
     54 N          33.3848   32.7002    4.9940 N.am      9 UNK        -0.4246 
     55 CA         32.5516   32.7942    6.2006 C.3       9 UNK         0.0261 
     56 CB         33.0964   33.9052    7.1127 C.3       9 UNK        -0.1959 
     57 C          32.4064   31.4786    6.9853 C.2       9 UNK         0.5033 
     58 O          31.3556   31.2496    7.5853 O.2       9 UNK        -0.5390 
     59 N          33.4364   30.6224    6.9295 N.am      10 UNK        -0.4215 
     60 CA         33.4578   29.2825    7.5235 C.3       10 UNK         0.0240 
     61 CB         34.8645   28.6835    7.3603 C.3       10 UNK        -0.1982 
     62 C          32.3985   28.3205    6.9506 C.2       10 UNK         0.4970 
     63 O          31.9935   27.3982    7.6594 O.2       10 UNK        -0.4916 
     64 N          31.9705   28.5507    5.7026 N.am      11 UNK        -0.4279 
     65 CA         30.9148   27.7880    5.0202 C.3       11 UNK         0.1003 
     66 C          29.5368   28.5109    5.0389 C.2       11 UNK         0.5709 
     67 N          29.3936   29.6754    5.6624 N.am      11 UNK        -0.7358 
     68 O          28.5597   27.9840    4.5145 O.2       11 UNK        -0.4999 
     69 C69        31.3562   27.3771    3.5896 C.3       12 UNK        -0.0954 
     70 S70        32.7718   26.2263    3.6432 S.3       12 UNK        -0.2268 
     71 C71        33.6911   26.6754    2.1414 C.3       12 UNK         0.0203 
     72 H72        26.1104   21.2547    0.2445 H         1 UNK         0.0888 
     73 H73        26.7724   21.4552   -1.3802 H         1 UNK         0.0888 
     74 H74        27.4217   20.2101   -0.3106 H         1 UNK         0.0888 
     75 H75        29.3536   20.7868    0.6519 H         1 UNK         0.3017 
     76 H76        30.4159   23.4504    0.5150 H         1 UNK         0.0873 
     77 H77        32.4468   22.3246    1.6176 H         1 UNK         0.0745 
     78 H78        31.5335   20.8469    1.6739 H         1 UNK         0.0745 
     79 H79        34.3486   22.3103   -0.2439 H         1 UNK         0.0705 
     80 H80        33.8263   22.5373   -1.8945 H         1 UNK         0.0705 
     81 H81        34.2659   24.1754    1.2388 H         1 UNK         0.1334 
     82 H82        31.8687   27.6060    0.3449 H         1 UNK         0.1417 
     83 H83        31.7933   24.2059   -2.2691 H         1 UNK         0.1562 
     84 H84        31.1063   26.7245   -2.9881 H         1 UNK         0.0748 
     85 H85        30.6363   27.7450   -1.6489 H         1 UNK         0.0748 
     86 H86        27.2877   27.0141   -2.9933 H         1 UNK         0.0940 
     87 H87        28.5499   28.1407   -2.6272 H         1 UNK         0.0940 
     88 H88        26.5964   28.6279   -1.2295 H         1 UNK         0.0703 
     89 H89        26.6481   26.2731    0.3801 H         1 UNK         0.3081 
     90 H90        23.1483   26.0422    0.0949 H         1 UNK         0.0719 
     91 H91        23.8099   24.1274   -1.3595 H         1 UNK         0.0809 
     92 H92        25.1712   23.7749   -0.3065 H         1 UNK         0.0809 
     93 H93        23.5226   23.5918    0.2890 H         1 UNK         0.0809 
     94 H94        25.0744   24.9190    1.9262 H         1 UNK         0.2990 
     95 H95        25.2721   27.7725    4.0695 H         1 UNK         0.0690 
     96 H96        24.5364   26.0899    5.7286 H         1 UNK         0.0788 
     97 H97        23.9740   25.0237    4.4422 H         1 UNK         0.0788 
     98 H98        23.1959   26.5760    4.7034 H         1 UNK         0.0788 
     99 H99        27.2135   26.8037    4.1015 H         1 UNK         0.2993 
    100 H100       28.9066   25.4353    4.0057 H         1 UNK         0.0949 
    101 H101       29.3950   23.5426    5.5267 H         1 UNK         0.0767 
    102 H102       27.8459   24.2063    5.9938 H         1 UNK         0.0767 
    103 H103       27.9068   22.7190    5.0570 H         1 UNK         0.0767 
    104 H104       28.2237   23.7953    1.9203 H         1 UNK         0.3013 
    105 H105       28.5510   29.9388   -0.6753 H         1 UNK         0.3121 
    106 H106       29.8812   29.1730    1.8454 H         1 UNK         0.0774 
    107 H107       29.1616   31.3269    2.9216 H         1 UNK         0.0815 
    108 H108       28.0089   31.5908    1.6092 H         1 UNK         0.0815 
    109 H109       27.8359   30.2069    2.6803 H         1 UNK         0.0815 
    110 H110       29.6381   32.4524    0.7658 H         1 UNK         0.2987 
    111 H111       31.0180   33.9724   -0.0205 H         1 UNK         0.0949 
    112 H112       32.7022   31.7803   -1.3447 H         1 UNK         0.0806 
    113 H113       31.3344   32.6114   -2.0825 H         1 UNK         0.0806 
    114 H114       32.7874   33.5030   -1.6613 H         1 UNK         0.0806 
    115 H115       32.9328   31.2151    1.1596 H         1 UNK         0.3010 
    116 H116       34.6802   32.9332    2.8385 H         1 UNK         0.0829 
    117 H117       35.6805   30.8975    1.7680 H         1 UNK         0.0813 
    118 H118       35.6820   30.7548    3.5192 H         1 UNK         0.0813 
    119 H119       34.4880   29.8792    2.5724 H         1 UNK         0.0813 
    120 H120       34.1381   33.3694    4.9191 H         1 UNK         0.3038 
    121 H121       31.5496   33.0824    5.8755 H         1 UNK         0.0769 
    122 H122       34.1152   33.6960    7.4414 H         1 UNK         0.0811 
    123 H123       32.4813   34.0124    8.0075 H         1 UNK         0.0811 
    124 H124       33.0970   34.8710    6.6069 H         1 UNK         0.0811 
    125 H125       34.2543   30.9022    6.4082 H         1 UNK         0.3204 
    126 H126       33.2524   29.3928    8.5904 H         1 UNK         0.0748 
    127 H127       34.9239   27.6961    7.8207 H         1 UNK         0.0771 
    128 H128       35.1348   28.5689    6.3096 H         1 UNK         0.0771 
    129 H129       35.6210   29.3067    7.8379 H         1 UNK         0.0771 
    130 H130       32.3102   29.3617    5.1971 H         1 UNK         0.2980 
    131 H131       30.7344   26.8611    5.5675 H         1 UNK         0.0545 
    132 H132       30.1659   30.1040    6.1543 H         1 UNK         0.3459 
    133 H133       28.4862   30.1110    5.6770 H         1 UNK         0.3459 
    134 H134       30.5487   26.8873    3.0426 H         1 UNK         0.0616 
    135 H135       31.6300   28.2630    3.0153 H         1 UNK         0.0616 
    136 H136       34.7373   26.3986    2.2791 H         1 UNK         0.0634 
    137 H137       33.6806   27.7566    2.0030 H         1 UNK         0.0634 
@<TRIPOS>BOND
     1    1    2 1    
     2    1   72 1    
     3    1   73 1    
     4    1   74 1    
     5    2    3 2    
     6    2    4 am   BACKBONE|DICT|INTERRES
     7    4    5 1    
     8    4   75 1    
     9    5    6 1    
    10    5   35 1    
    11    5   76 1    
    12    6    7 1    
    13    6   77 1    
    14    6   78 1    
    15    7    8 1    
    16    8    9 1    
    17    8   79 1    
    18    8   80 1    
    19    9   10 ar   
    20    9   14 ar   
    21   10   11 ar   
    22   10   81 1    
    23   11   12 ar   
    24   11   71 1    
    25   12   13 ar   
    26   12   82 1    
    27   13   14 ar   
    28   13   15 1    
    29   14   83 1    
    30   15   16 1    
    31   15   84 1    
    32   15   85 1    
    33   16   17 1    
    34   17   18 1    
    35   17   86 1    
    36   17   87 1    
    37   18   19 1    
    38   18   37 1    
    39   18   88 1    
    40   19   20 am   BACKBONE|DICT|INTERRES
    41   19   89 1    
    42   20   21 2    
    43   20   22 1    
    44   22   23 1    
    45   22   24 1    
    46   22   90 1    
    47   23   91 1    
    48   23   92 1    
    49   23   93 1    
    50   24   25 am   BACKBONE|DICT|INTERRES
    51   24   94 1    
    52   25   26 2    
    53   25   27 1    
    54   27   28 1    
    55   27   29 1    
    56   27   95 1    
    57   28   96 1    
    58   28   97 1    
    59   28   98 1    
    60   29   30 am   BACKBONE|DICT|INTERRES
    61   29   99 1    
    62   30   31 2    
    63   30   32 1    
    64   32   33 1    
    65   32   34 1    
    66   32  100 1    
    67   33  101 1    
    68   33  102 1    
    69   33  103 1    
    70   34   35 am   BACKBONE|DICT|INTERRES
    71   34  104 1    
    72   35   36 2    
    73   37   38 2    
    74   37   39 am   BACKBONE|DICT|INTERRES
    75   39   40 1    
    76   39  105 1    
    77   40   41 1    
    78   40   42 1    
    79   40  106 1    
    80   41  107 1    
    81   41  108 1    
    82   41  109 1    
    83   42   43 2    
    84   42   44 am   BACKBONE|DICT|INTERRES
    85   44   45 1    
    86   44  110 1    
    87   45   46 1    
    88   45   47 1    
    89   45  111 1    
    90   46  112 1    
    91   46  113 1    
    92   46  114 1    
    93   47   48 2    
    94   47   49 am   BACKBONE|DICT|INTERRES
    95   49   50 1    
    96   49  115 1    
    97   50   51 1    
    98   50   52 1    
    99   50  116 1    
   100   51  117 1    
   101   51  118 1    
   102   51  119 1    
   103   52   53 2    
   104   52   54 am   BACKBONE|DICT|INTERRES
   105   54   55 1    
   106   54  120 1    
   107   55   56 1    
   108   55   57 1    
   109   55  121 1    
   110   56  122 1    
   111   56  123 1    
   112   56  124 1    
   113   57   58 2    
   114   57   59 am   BACKBONE|DICT|INTERRES
   115   59   60 1    
   116   59  125 1    
   117   60   61 1    
   118   60   62 1    
   119   60  126 1    
   120   61  127 1    
   121   61  128 1    
   122   61  129 1    
   123   62   63 2    
   124   62   64 am   BACKBONE|DICT|INTERRES
   125   64   65 1    
   126   64  130 1    
   127   65   66 1    
   128   65   69 1    
   129   65  131 1    
   130   66   67 am   BACKBONE|DICT|INTERRES
   131   66   68 2    
   132   67  132 1    
   133   67  133 1    
   134   69   70 1    
   135   69  134 1    
   136   69  135 1    
   137   70   71 1    
   138   71  136 1    
   139   71  137 1    
@<TRIPOS>SUBSTRUCTURE
     1 UNK         1 GROUP             0       ****    0 ROOT    
