@<TRIPOS>MOLECULE
3R136
137   139    1
SMALL
USER_CHARGES


@<TRIPOS>ATOM
      1 CA         30.0075   20.1733    0.8964 C.3       0 UNK        -0.1979 
      2 C          29.7357   20.8878   -0.4194 C.2       0 UNK         0.4864 
      3 O          30.4655   20.6833   -1.3904 O.2       0 UNK        -0.5359 
      4 N          28.6964   21.7262   -0.4552 N.am      1 UNK        -0.4318 
      5 CA         28.2861   22.5312   -1.6041 C.3       1 UNK         0.0824 
      6 C6         29.2109   23.7548   -1.8681 C.3       12 UNK        -0.0944 
      7 S7         29.5678   24.7690   -0.3866 S.3       12 UNK        -0.2672 
      8 C8         31.3375   24.3951   -0.1709 C.3       12 UNK         0.0333 
      9 C9         31.8115   24.7330    1.2314 C.ar      12 UNK        -0.0807 
     10 C10        32.6317   25.8411    1.4644 C.ar      12 UNK        -0.0894 
     11 C11        33.0704   26.1372    2.7589 C.ar      12 UNK        -0.0804 
     12 C12        32.6726   25.3217    3.8242 C.ar      12 UNK        -0.0824 
     13 C13        31.8410   24.2195    3.6027 C.ar      12 UNK        -0.0762 
     14 C14        31.4340   23.9175    2.3006 C.ar      12 UNK        -0.0782 
     15 C15        31.3500   23.3730    4.7689 C.3       12 UNK         0.0230 
     16 S16        29.5341   23.4389    4.9377 S.3       12 UNK        -0.2608 
     17 C17        29.2465   25.2202    5.2251 C.3       12 UNK        -0.0989 
     18 CA         28.8839   25.9928    3.9234 C.3       5 UNK         0.0716 
     19 N          27.7298   25.4473    3.1988 N.am      5 UNK        -0.4135 
     20 C          26.4636   25.4005    3.6355 C.2       4 UNK         0.5031 
     21 O          26.0915   25.8177    4.7342 O.2       4 UNK        -0.5229 
     22 CA         25.4489   24.7835    2.6543 C.3       4 UNK         0.0329 
     23 CB         23.9936   24.8412    3.1664 C.3       4 UNK        -0.2001 
     24 N          25.5505   25.3555    1.3054 N.am      4 UNK        -0.4303 
     25 C          25.3664   26.6394    0.9498 C.2       3 UNK         0.5044 
     26 O          25.1021   27.5392    1.7459 O.2       3 UNK        -0.5152 
     27 CA         25.5154   27.0048   -0.5417 C.3       3 UNK         0.0319 
     28 CB         26.7942   27.8279   -0.7654 C.3       3 UNK        -0.2001 
     29 N          25.5385   25.8451   -1.4345 N.am      3 UNK        -0.4354 
     30 C          24.4846   25.0647   -1.7154 C.2       2 UNK         0.4964 
     31 O          23.3378   25.3021   -1.3355 O.2       2 UNK        -0.5047 
     32 CA         24.7570   23.7858   -2.5315 C.3       2 UNK         0.0288 
     33 CB         24.3253   23.9807   -3.9945 C.3       2 UNK        -0.2113 
     34 N          26.1532   23.3277   -2.4999 N.am      2 UNK        -0.4145 
     35 C          26.8215   22.9476   -1.4006 C.2       1 UNK         0.5006 
     36 O          26.3370   22.9568   -0.2639 O.2       1 UNK        -0.5103 
     37 C          28.7696   27.5167    4.1363 C.2       5 UNK         0.5055 
     38 O          29.0819   28.0188    5.2175 O.2       5 UNK        -0.5220 
     39 N          28.3562   28.2299    3.0830 N.am      6 UNK        -0.4450 
     40 CA         28.3074   29.6912    3.0218 C.3       6 UNK         0.0367 
     41 CB         26.9171   30.1880    3.4616 C.3       6 UNK        -0.1929 
     42 C          28.7053   30.1798    1.6187 C.2       6 UNK         0.5070 
     43 O          28.1923   31.1976    1.1531 O.2       6 UNK        -0.5237 
     44 N          29.5981   29.4330    0.9509 N.am      7 UNK        -0.4739 
     45 CA         30.0792   29.7250   -0.4046 C.3       7 UNK         0.0276 
     46 CB         30.7195   28.4572   -0.9926 C.3       7 UNK        -0.1927 
     47 C          31.0749   30.8972   -0.4662 C.2       7 UNK         0.5013 
     48 O          31.2677   31.4676   -1.5409 O.2       7 UNK        -0.5193 
     49 N          31.6945   31.2252    0.6708 N.am      8 UNK        -0.4253 
     50 CA         32.6719   32.2912    0.8462 C.3       8 UNK         0.0242 
     51 CB         34.0683   31.7803    0.4371 C.3       8 UNK        -0.2000 
     52 C          32.6394   32.7428    2.3122 C.2       8 UNK         0.4948 
     53 O          31.9065   32.1666    3.1231 O.2       8 UNK        -0.5275 
     54 N          33.4431   33.7638    2.6317 N.am      9 UNK        -0.4246 
     55 CA         33.6887   34.2113    4.0023 C.3       9 UNK         0.0261 
     56 CB         34.4176   35.5648    3.9712 C.3       9 UNK        -0.1959 
     57 C          34.5139   33.1708    4.7798 C.2       9 UNK         0.5033 
     58 O          35.4078   32.5476    4.2015 O.2       9 UNK        -0.5390 
     59 N          34.2108   33.0332    6.0775 N.am      10 UNK        -0.4215 
     60 CA         34.8490   32.1255    7.0408 C.3       10 UNK         0.0240 
     61 CB         36.3290   32.5073    7.2683 C.3       10 UNK        -0.1982 
     62 C          34.6536   30.6257    6.7263 C.2       10 UNK         0.4970 
     63 O          35.5160   29.8174    7.0766 O.2       10 UNK        -0.4916 
     64 N          33.5157   30.2766    6.1091 N.am      11 UNK        -0.4279 
     65 CA         33.0275   28.8971    5.9648 C.3       11 UNK         0.1003 
     66 C          32.3342   28.4315    7.2809 C.2       11 UNK         0.5709 
     67 N          31.0482   28.1050    7.2816 N.am      11 UNK        -0.7358 
     68 O          32.9784   28.3267    8.3222 O.2       11 UNK        -0.4999 
     69 C69        32.1719   28.7062    4.6815 C.3       12 UNK        -0.0954 
     70 S70        33.1086   28.9065    3.1314 S.3       12 UNK        -0.2268 
     71 C71        33.9977   27.3209    3.0013 C.3       12 UNK         0.0203 
     72 H72        29.9211   19.0953    0.7633 H         1 UNK         0.0888 
     73 H73        31.0170   20.3951    1.2415 H         1 UNK         0.0888 
     74 H74        29.3095   20.4768    1.6767 H         1 UNK         0.0888 
     75 H75        28.0910   21.8433    0.3483 H         1 UNK         0.3017 
     76 H76        28.3068   21.8848   -2.4844 H         1 UNK         0.0873 
     77 H77        28.7895   24.4072   -2.6349 H         1 UNK         0.0745 
     78 H78        30.1506   23.4008   -2.2944 H         1 UNK         0.0745 
     79 H79        31.5190   23.3353   -0.3544 H         1 UNK         0.0705 
     80 H80        31.9122   24.9417   -0.9202 H         1 UNK         0.0705 
     81 H81        32.9397   26.4683    0.6395 H         1 UNK         0.1334 
     82 H82        33.0017   25.5538    4.8279 H         1 UNK         0.1417 
     83 H83        30.7903   23.0664    2.1242 H         1 UNK         0.1562 
     84 H84        31.8083   23.6915    5.7065 H         1 UNK         0.0748 
     85 H85        31.6548   22.3374    4.6126 H         1 UNK         0.0748 
     86 H86        30.1387   25.6446    5.6892 H         1 UNK         0.0940 
     87 H87        28.4507   25.3241    5.9644 H         1 UNK         0.0940 
     88 H88        29.7229   25.8873    3.2377 H         1 UNK         0.0703 
     89 H89        27.9295   25.0646    2.2856 H         1 UNK         0.3081 
     90 H90        25.7190   23.7305    2.5592 H         1 UNK         0.0719 
     91 H91        23.6592   25.8667    3.3268 H         1 UNK         0.0809 
     92 H92        23.3073   24.3710    2.4622 H         1 UNK         0.0809 
     93 H93        23.8938   24.3153    4.1167 H         1 UNK         0.0809 
     94 H94        25.7792   24.6844    0.5781 H         1 UNK         0.2990 
     95 H95        24.6578   27.6244   -0.8122 H         1 UNK         0.0690 
     96 H96        26.9080   28.1152   -1.8108 H         1 UNK         0.0788 
     97 H97        27.6859   27.2756   -0.4686 H         1 UNK         0.0788 
     98 H98        26.7686   28.7491   -0.1823 H         1 UNK         0.0788 
     99 H99        26.4390   25.5796   -1.8047 H         1 UNK         0.2993 
    100 H100       24.1430   22.9951   -2.0945 H         1 UNK         0.0949 
    101 H101       24.4175   23.0550   -4.5631 H         1 UNK         0.0767 
    102 H102       23.2814   24.2922   -4.0560 H         1 UNK         0.0767 
    103 H103       24.9230   24.7445   -4.4937 H         1 UNK         0.0767 
    104 H104       26.6284   23.2934   -3.3909 H         1 UNK         0.3013 
    105 H105       28.0745   27.7437    2.2437 H         1 UNK         0.3121 
    106 H106       29.0510   30.1089    3.7042 H         1 UNK         0.0774 
    107 H107       26.8783   31.2776    3.4866 H         1 UNK         0.0815 
    108 H108       26.1367   29.8470    2.7807 H         1 UNK         0.0815 
    109 H109       26.6675   29.8328    4.4614 H         1 UNK         0.0815 
    110 H110       30.0067   28.6336    1.4133 H         1 UNK         0.2987 
    111 H111       29.2216   29.9952   -1.0249 H         1 UNK         0.0949 
    112 H112       31.5728   28.1262   -0.4007 H         1 UNK         0.0806 
    113 H113       30.0057   27.6369   -1.0449 H         1 UNK         0.0806 
    114 H114       31.0770   28.6342   -2.0079 H         1 UNK         0.0806 
    115 H115       31.4396   30.7549    1.5308 H         1 UNK         0.3010 
    116 H116       32.3919   33.1442    0.2243 H         1 UNK         0.0829 
    117 H117       34.0773   31.4285   -0.5946 H         1 UNK         0.0813 
    118 H118       34.8202   32.5663    0.5122 H         1 UNK         0.0813 
    119 H119       34.3939   30.9560    1.0732 H         1 UNK         0.0813 
    120 H120       34.0340   34.1608    1.9160 H         1 UNK         0.3038 
    121 H121       32.7236   34.3458    4.4961 H         1 UNK         0.0769 
    122 H122       34.5905   35.9389    4.9813 H         1 UNK         0.0811 
    123 H123       33.8337   36.3192    3.4435 H         1 UNK         0.0811 
    124 H124       35.3900   35.4888    3.4824 H         1 UNK         0.0811 
    125 H125       33.4607   33.5999    6.4507 H         1 UNK         0.3204 
    126 H126       34.3300   32.2892    7.9865 H         1 UNK         0.0748 
    127 H127       36.7555   31.9459    8.1005 H         1 UNK         0.0771 
    128 H128       36.9413   32.2991    6.3904 H         1 UNK         0.0771 
    129 H129       36.4341   33.5654    7.5076 H         1 UNK         0.0771 
    130 H130       32.8710   31.0024    5.8343 H         1 UNK         0.2980 
    131 H131       33.8911   28.2388    5.8630 H         1 UNK         0.0545 
    132 H132       30.4650   28.1770    6.4512 H         1 UNK         0.3459 
    133 H133       30.6326   27.7984    8.1461 H         1 UNK         0.3459 
    134 H134       31.7113   27.7200    4.6669 H         1 UNK         0.0616 
    135 H135       31.3523   29.4260    4.6678 H         1 UNK         0.0616 
    136 H136       34.7100   27.3944    2.1783 H         1 UNK         0.0634 
    137 H137       34.5964   27.1615    3.8986 H         1 UNK         0.0634 
@<TRIPOS>BOND
     1    1    2 1    
     2    1   72 1    
     3    1   73 1    
     4    1   74 1    
     5    2    3 2    
     6    2    4 am   BACKBONE|DICT|INTERRES
     7    4    5 1    
     8    4   75 1    
     9    5    6 1    
    10    5   35 1    
    11    5   76 1    
    12    6    7 1    
    13    6   77 1    
    14    6   78 1    
    15    7    8 1    
    16    8    9 1    
    17    8   79 1    
    18    8   80 1    
    19    9   10 ar   
    20    9   14 ar   
    21   10   11 ar   
    22   10   81 1    
    23   11   12 ar   
    24   11   71 1    
    25   12   13 ar   
    26   12   82 1    
    27   13   14 ar   
    28   13   15 1    
    29   14   83 1    
    30   15   16 1    
    31   15   84 1    
    32   15   85 1    
    33   16   17 1    
    34   17   18 1    
    35   17   86 1    
    36   17   87 1    
    37   18   19 1    
    38   18   37 1    
    39   18   88 1    
    40   19   20 am   BACKBONE|DICT|INTERRES
    41   19   89 1    
    42   20   21 2    
    43   20   22 1    
    44   22   23 1    
    45   22   24 1    
    46   22   90 1    
    47   23   91 1    
    48   23   92 1    
    49   23   93 1    
    50   24   25 am   BACKBONE|DICT|INTERRES
    51   24   94 1    
    52   25   26 2    
    53   25   27 1    
    54   27   28 1    
    55   27   29 1    
    56   27   95 1    
    57   28   96 1    
    58   28   97 1    
    59   28   98 1    
    60   29   30 am   BACKBONE|DICT|INTERRES
    61   29   99 1    
    62   30   31 2    
    63   30   32 1    
    64   32   33 1    
    65   32   34 1    
    66   32  100 1    
    67   33  101 1    
    68   33  102 1    
    69   33  103 1    
    70   34   35 am   BACKBONE|DICT|INTERRES
    71   34  104 1    
    72   35   36 2    
    73   37   38 2    
    74   37   39 am   BACKBONE|DICT|INTERRES
    75   39   40 1    
    76   39  105 1    
    77   40   41 1    
    78   40   42 1    
    79   40  106 1    
    80   41  107 1    
    81   41  108 1    
    82   41  109 1    
    83   42   43 2    
    84   42   44 am   BACKBONE|DICT|INTERRES
    85   44   45 1    
    86   44  110 1    
    87   45   46 1    
    88   45   47 1    
    89   45  111 1    
    90   46  112 1    
    91   46  113 1    
    92   46  114 1    
    93   47   48 2    
    94   47   49 am   BACKBONE|DICT|INTERRES
    95   49   50 1    
    96   49  115 1    
    97   50   51 1    
    98   50   52 1    
    99   50  116 1    
   100   51  117 1    
   101   51  118 1    
   102   51  119 1    
   103   52   53 2    
   104   52   54 am   BACKBONE|DICT|INTERRES
   105   54   55 1    
   106   54  120 1    
   107   55   56 1    
   108   55   57 1    
   109   55  121 1    
   110   56  122 1    
   111   56  123 1    
   112   56  124 1    
   113   57   58 2    
   114   57   59 am   BACKBONE|DICT|INTERRES
   115   59   60 1    
   116   59  125 1    
   117   60   61 1    
   118   60   62 1    
   119   60  126 1    
   120   61  127 1    
   121   61  128 1    
   122   61  129 1    
   123   62   63 2    
   124   62   64 am   BACKBONE|DICT|INTERRES
   125   64   65 1    
   126   64  130 1    
   127   65   66 1    
   128   65   69 1    
   129   65  131 1    
   130   66   67 am   BACKBONE|DICT|INTERRES
   131   66   68 2    
   132   67  132 1    
   133   67  133 1    
   134   69   70 1    
   135   69  134 1    
   136   69  135 1    
   137   70   71 1    
   138   71  136 1    
   139   71  137 1    
@<TRIPOS>SUBSTRUCTURE
     1 UNK         1 GROUP             0       ****    0 ROOT    
