@<TRIPOS>MOLECULE
3R136
137   139    1
SMALL
USER_CHARGES


@<TRIPOS>ATOM
      1 CA         28.8393   20.2488    0.4180 C.3       0 UNK        -0.1979 
      2 C          29.0049   21.0556   -0.8618 C.2       0 UNK         0.4864 
      3 O          28.6762   20.5654   -1.9434 O.2       0 UNK        -0.5359 
      4 N          29.5184   22.2857   -0.7461 N.am      1 UNK        -0.4318 
      5 CA         29.6609   23.2488   -1.8405 C.3       1 UNK         0.0824 
      6 C6         30.7013   24.3516   -1.5029 C.3       12 UNK        -0.0944 
      7 S7         30.4328   25.1584    0.1165 S.3       12 UNK        -0.2672 
      8 C8         31.8428   24.5097    1.0674 C.3       12 UNK         0.0333 
      9 C9         31.5978   24.6292    2.5627 C.ar      12 UNK        -0.0807 
     10 C10        32.1205   25.7017    3.2906 C.ar      12 UNK        -0.0894 
     11 C11        31.8935   25.8039    4.6676 C.ar      12 UNK        -0.0804 
     12 C12        31.1403   24.8200    5.3175 C.ar      12 UNK        -0.0824 
     13 C13        30.5934   23.7557    4.5921 C.ar      12 UNK        -0.0762 
     14 C14        30.8393   23.6581    3.2203 C.ar      12 UNK        -0.0782 
     15 C15        29.6902   22.7352    5.2680 C.3       12 UNK         0.0230 
     16 S16        27.9541   22.9489    4.7487 S.3       12 UNK        -0.2608 
     17 C17        27.5380   24.5560    5.5068 C.3       12 UNK        -0.0989 
     18 CA         27.7857   25.7589    4.5612 C.3       5 UNK         0.0716 
     19 N          26.9984   25.6878    3.3281 N.am      5 UNK        -0.4135 
     20 C          27.1196   26.5303    2.2927 C.2       4 UNK         0.5031 
     21 O          27.8910   27.4929    2.2818 O.2       4 UNK        -0.5229 
     22 CA         26.2130   26.2234    1.0883 C.3       4 UNK         0.0329 
     23 CB         24.7680   26.7064    1.3319 C.3       4 UNK        -0.2001 
     24 N          26.7468   26.7081   -0.1914 N.am      4 UNK        -0.4303 
     25 C          26.8173   27.9647   -0.6632 C.2       3 UNK         0.5044 
     26 O          26.3861   28.9565   -0.0757 O.2       3 UNK        -0.5152 
     27 CA         27.4534   28.1665   -2.0556 C.3       3 UNK         0.0319 
     28 CB         28.8268   28.8472   -1.9427 C.3       3 UNK        -0.2001 
     29 N          27.6038   26.9315   -2.8276 N.am      3 UNK        -0.4354 
     30 C          26.6016   26.2548   -3.4064 C.2       2 UNK         0.4964 
     31 O          25.4348   26.6468   -3.4312 O.2       2 UNK        -0.5047 
     32 CA         26.9555   24.8990   -4.0484 C.3       2 UNK         0.0288 
     33 CB         27.1209   25.0518   -5.5694 C.3       2 UNK        -0.2113 
     34 N          28.1599   24.2655   -3.4934 N.am      2 UNK        -0.4145 
     35 C          28.2945   23.8543   -2.2235 C.2       1 UNK         0.5006 
     36 O          27.4137   23.9863   -1.3686 O.2       1 UNK        -0.5103 
     37 C          27.5582   27.0832    5.3105 C.2       5 UNK         0.5055 
     38 O          26.4205   27.5503    5.3962 O.2       5 UNK        -0.5220 
     39 N          28.6553   27.6625    5.8178 N.am      6 UNK        -0.4450 
     40 CA         28.7774   28.9466    6.5260 C.3       6 UNK         0.0367 
     41 CB         27.9121   28.9795    7.8010 C.3       6 UNK        -0.1929 
     42 C          28.5315   30.1948    5.6543 C.2       6 UNK         0.5070 
     43 O          29.1093   31.2417    5.9475 O.2       6 UNK        -0.5237 
     44 N          27.7112   30.0754    4.6039 N.am      7 UNK        -0.4739 
     45 CA         27.4665   31.1131    3.6029 C.3       7 UNK         0.0276 
     46 CB         26.1478   30.8093    2.8762 C.3       7 UNK        -0.1927 
     47 C          28.6282   31.2511    2.6034 C.2       7 UNK         0.5013 
     48 O          28.9068   32.3673    2.1620 O.2       7 UNK        -0.5193 
     49 N          29.2849   30.1298    2.2698 N.am      8 UNK        -0.4253 
     50 CA         30.4726   30.0655    1.4161 C.3       8 UNK         0.0242 
     51 CB         30.8553   28.5941    1.2092 C.3       8 UNK        -0.2000 
     52 C          31.6578   30.8329    2.0210 C.2       8 UNK         0.4948 
     53 O          32.0132   30.5843    3.1743 O.2       8 UNK        -0.5275 
     54 N          32.2790   31.7109    1.2216 N.am      9 UNK        -0.4246 
     55 CA         33.3362   32.6518    1.6237 C.3       9 UNK         0.0261 
     56 CB         33.7164   33.5177    0.4106 C.3       9 UNK        -0.1959 
     57 C          34.6000   32.0328    2.2559 C.2       9 UNK         0.5033 
     58 O          35.3664   32.7598    2.8899 O.2       9 UNK        -0.5390 
     59 N          34.7974   30.7192    2.0851 N.am      10 UNK        -0.4215 
     60 CA         35.8662   29.9380    2.7069 C.3       10 UNK         0.0240 
     61 CB         35.8737   28.5250    2.0995 C.3       10 UNK        -0.1982 
     62 C          35.7653   29.8536    4.2421 C.2       10 UNK         0.4970 
     63 O          36.8071   29.7721    4.8949 O.2       10 UNK        -0.4916 
     64 N          34.5409   29.8574    4.7887 N.am      11 UNK        -0.4279 
     65 CA         34.2818   29.6730    6.2284 C.3       11 UNK         0.1003 
     66 C          32.9002   30.1807    6.7327 C.2       11 UNK         0.5709 
     67 N          32.0119   30.6868    5.8901 N.am      11 UNK        -0.7358 
     68 O          32.6334   30.1381    7.9312 O.2       11 UNK        -0.4999 
     69 C69        34.6430   28.2449    6.7546 C.3       12 UNK        -0.0954 
     70 S70        34.2446   26.8325    5.6630 S.3       12 UNK        -0.2268 
     71 C71        32.4494   26.9878    5.4438 C.3       12 UNK         0.0203 
     72 H72        29.1577   20.8080    1.2977 H         1 UNK         0.0888 
     73 H73        27.7940   19.9725    0.5539 H         1 UNK         0.0888 
     74 H74        29.4300   19.3347    0.3648 H         1 UNK         0.0888 
     75 H75        29.7195   22.6606    0.1690 H         1 UNK         0.3017 
     76 H76        30.0292   22.7036   -2.7126 H         1 UNK         0.0873 
     77 H77        31.7016   23.9166   -1.5227 H         1 UNK         0.0745 
     78 H78        30.7167   25.1244   -2.2737 H         1 UNK         0.0745 
     79 H79        32.0121   23.4619    0.8142 H         1 UNK         0.0705 
     80 H80        32.7480   25.0470    0.7804 H         1 UNK         0.0705 
     81 H81        32.7083   26.4573    2.7878 H         1 UNK         0.1334 
     82 H82        30.9564   24.8964    6.3806 H         1 UNK         0.1417 
     83 H83        30.4135   22.8373    2.6604 H         1 UNK         0.1562 
     84 H84        29.7611   22.8029    6.3548 H         1 UNK         0.0748 
     85 H85        30.0191   21.7297    5.0014 H         1 UNK         0.0748 
     86 H86        28.1118   24.6626    6.4297 H         1 UNK         0.0940 
     87 H87        26.4900   24.5249    5.8120 H         1 UNK         0.0940 
     88 H88        28.8257   25.7460    4.2378 H         1 UNK         0.0703 
     89 H89        26.3337   24.9309    3.2732 H         1 UNK         0.3081 
     90 H90        26.1839   25.1378    0.9807 H         1 UNK         0.0719 
     91 H91        24.7247   27.7755    1.5411 H         1 UNK         0.0809 
     92 H92        24.1313   26.5056    0.4703 H         1 UNK         0.0809 
     93 H93        24.3247   26.1968    2.1880 H         1 UNK         0.0809 
     94 H94        27.1413   25.9741   -0.7687 H         1 UNK         0.2990 
     95 H95        26.7921   28.8355   -2.6105 H         1 UNK         0.0690 
     96 H96        29.2044   29.1390   -2.9227 H         1 UNK         0.0788 
     97 H97        29.5651   28.1906   -1.4830 H         1 UNK         0.0788 
     98 H98        28.7654   29.7531   -1.3386 H         1 UNK         0.0788 
     99 H99        28.5320   26.5384   -2.8729 H         1 UNK         0.2993 
    100 H100       26.1142   24.2281   -3.8602 H         1 UNK         0.0949 
    101 H101       27.2764   24.0863   -6.0515 H         1 UNK         0.0767 
    102 H102       26.2293   25.4940   -6.0168 H         1 UNK         0.0767 
    103 H103       27.9650   25.6949   -5.8217 H         1 UNK         0.0767 
    104 H104       28.9285   24.1278   -4.1346 H         1 UNK         0.3013 
    105 H105       29.5360   27.1996    5.6444 H         1 UNK         0.3121 
    106 H106       29.8197   29.0001    6.8444 H         1 UNK         0.0774 
    107 H107       28.1136   29.8811    8.3808 H         1 UNK         0.0815 
    108 H108       26.8459   28.9765    7.5732 H         1 UNK         0.0815 
    109 H109       28.1216   28.1263    8.4460 H         1 UNK         0.0815 
    110 H110       27.2392   29.1874    4.4740 H         1 UNK         0.2987 
    111 H111       27.3599   32.0718    4.1156 H         1 UNK         0.0949 
    112 H112       26.1666   29.8240    2.4099 H         1 UNK         0.0806 
    113 H113       25.3014   30.8374    3.5625 H         1 UNK         0.0806 
    114 H114       25.9544   31.5397    2.0894 H         1 UNK         0.0806 
    115 H115       28.9254   29.2435    2.6090 H         1 UNK         0.3010 
    116 H116       30.2131   30.5032    0.4509 H         1 UNK         0.0829 
    117 H117       30.0317   28.0314    0.7730 H         1 UNK         0.0813 
    118 H118       31.7122   28.4915    0.5426 H         1 UNK         0.0813 
    119 H119       31.1092   28.1147    2.1543 H         1 UNK         0.0813 
    120 H120       31.9311   31.8220    0.2799 H         1 UNK         0.3038 
    121 H121       32.9018   33.3052    2.3831 H         1 UNK         0.0769 
    122 H122       32.8562   34.0672    0.0276 H         1 UNK         0.0811 
    123 H123       34.1220   32.9151   -0.4031 H         1 UNK         0.0811 
    124 H124       34.4740   34.2564    0.6771 H         1 UNK         0.0811 
    125 H125       34.1093   30.2092    1.5518 H         1 UNK         0.3204 
    126 H126       36.8153   30.4212    2.4654 H         1 UNK         0.0748 
    127 H127       36.0259   28.5555    1.0204 H         1 UNK         0.0771 
    128 H128       36.6801   27.9237    2.5221 H         1 UNK         0.0771 
    129 H129       34.9394   27.9963    2.2945 H         1 UNK         0.0771 
    130 H130       33.7282   29.9641    4.1933 H         1 UNK         0.2980 
    131 H131       34.9661   30.3601    6.7299 H         1 UNK         0.0545 
    132 H132       32.1524   30.7055    4.8818 H         1 UNK         0.3459 
    133 H133       31.1255   31.0209    6.2456 H         1 UNK         0.3459 
    134 H134       34.2095   28.0534    7.7377 H         1 UNK         0.0616 
    135 H135       35.7207   28.2012    6.9171 H         1 UNK         0.0616 
    136 H136       31.9727   27.0723    6.4216 H         1 UNK         0.0634 
    137 H137       32.2253   27.9069    4.9006 H         1 UNK         0.0634 
@<TRIPOS>BOND
     1    1    2 1    
     2    1   72 1    
     3    1   73 1    
     4    1   74 1    
     5    2    3 2    
     6    2    4 am   BACKBONE|DICT|INTERRES
     7    4    5 1    
     8    4   75 1    
     9    5    6 1    
    10    5   35 1    
    11    5   76 1    
    12    6    7 1    
    13    6   77 1    
    14    6   78 1    
    15    7    8 1    
    16    8    9 1    
    17    8   79 1    
    18    8   80 1    
    19    9   10 ar   
    20    9   14 ar   
    21   10   11 ar   
    22   10   81 1    
    23   11   12 ar   
    24   11   71 1    
    25   12   13 ar   
    26   12   82 1    
    27   13   14 ar   
    28   13   15 1    
    29   14   83 1    
    30   15   16 1    
    31   15   84 1    
    32   15   85 1    
    33   16   17 1    
    34   17   18 1    
    35   17   86 1    
    36   17   87 1    
    37   18   19 1    
    38   18   37 1    
    39   18   88 1    
    40   19   20 am   BACKBONE|DICT|INTERRES
    41   19   89 1    
    42   20   21 2    
    43   20   22 1    
    44   22   23 1    
    45   22   24 1    
    46   22   90 1    
    47   23   91 1    
    48   23   92 1    
    49   23   93 1    
    50   24   25 am   BACKBONE|DICT|INTERRES
    51   24   94 1    
    52   25   26 2    
    53   25   27 1    
    54   27   28 1    
    55   27   29 1    
    56   27   95 1    
    57   28   96 1    
    58   28   97 1    
    59   28   98 1    
    60   29   30 am   BACKBONE|DICT|INTERRES
    61   29   99 1    
    62   30   31 2    
    63   30   32 1    
    64   32   33 1    
    65   32   34 1    
    66   32  100 1    
    67   33  101 1    
    68   33  102 1    
    69   33  103 1    
    70   34   35 am   BACKBONE|DICT|INTERRES
    71   34  104 1    
    72   35   36 2    
    73   37   38 2    
    74   37   39 am   BACKBONE|DICT|INTERRES
    75   39   40 1    
    76   39  105 1    
    77   40   41 1    
    78   40   42 1    
    79   40  106 1    
    80   41  107 1    
    81   41  108 1    
    82   41  109 1    
    83   42   43 2    
    84   42   44 am   BACKBONE|DICT|INTERRES
    85   44   45 1    
    86   44  110 1    
    87   45   46 1    
    88   45   47 1    
    89   45  111 1    
    90   46  112 1    
    91   46  113 1    
    92   46  114 1    
    93   47   48 2    
    94   47   49 am   BACKBONE|DICT|INTERRES
    95   49   50 1    
    96   49  115 1    
    97   50   51 1    
    98   50   52 1    
    99   50  116 1    
   100   51  117 1    
   101   51  118 1    
   102   51  119 1    
   103   52   53 2    
   104   52   54 am   BACKBONE|DICT|INTERRES
   105   54   55 1    
   106   54  120 1    
   107   55   56 1    
   108   55   57 1    
   109   55  121 1    
   110   56  122 1    
   111   56  123 1    
   112   56  124 1    
   113   57   58 2    
   114   57   59 am   BACKBONE|DICT|INTERRES
   115   59   60 1    
   116   59  125 1    
   117   60   61 1    
   118   60   62 1    
   119   60  126 1    
   120   61  127 1    
   121   61  128 1    
   122   61  129 1    
   123   62   63 2    
   124   62   64 am   BACKBONE|DICT|INTERRES
   125   64   65 1    
   126   64  130 1    
   127   65   66 1    
   128   65   69 1    
   129   65  131 1    
   130   66   67 am   BACKBONE|DICT|INTERRES
   131   66   68 2    
   132   67  132 1    
   133   67  133 1    
   134   69   70 1    
   135   69  134 1    
   136   69  135 1    
   137   70   71 1    
   138   71  136 1    
   139   71  137 1    
@<TRIPOS>SUBSTRUCTURE
     1 UNK         1 GROUP             0       ****    0 ROOT    
