@<TRIPOS>MOLECULE
3R136
137   139    1
SMALL
USER_CHARGES


@<TRIPOS>ATOM
      1 CA         25.3529   19.0179    2.7541 C.3       0 UNK        -0.1979 
      2 C          26.4204   19.3310    1.7158 C.2       0 UNK         0.4864 
      3 O          26.5635   18.5886    0.7427 O.2       0 UNK        -0.5359 
      4 N          27.1750   20.4189    1.9186 N.am      1 UNK        -0.4318 
      5 CA         28.1976   20.9090    0.9907 C.3       1 UNK         0.0824 
      6 C6         29.1276   21.9367    1.6835 C.3       12 UNK        -0.0944 
      7 S7         30.6715   22.2225    0.7510 S.3       12 UNK        -0.2672 
      8 C8         31.8767   22.4607    2.0924 C.3       12 UNK         0.0333 
      9 C9         31.7384   23.8345    2.7315 C.ar      12 UNK        -0.0807 
     10 C10        32.4592   24.9184    2.2246 C.ar      12 UNK        -0.0894 
     11 C11        32.3608   26.1793    2.8202 C.ar      12 UNK        -0.0804 
     12 C12        31.5204   26.3577    3.9246 C.ar      12 UNK        -0.0824 
     13 C13        30.7862   25.2814    4.4347 C.ar      12 UNK        -0.0762 
     14 C14        30.9077   24.0216    3.8392 C.ar      12 UNK        -0.0782 
     15 C15        29.8841   25.4551    5.6485 C.3       12 UNK         0.0230 
     16 S16        28.1276   25.2368    5.2166 S.3       12 UNK        -0.2608 
     17 C17        27.5835   26.9500    4.8998 C.3       12 UNK        -0.0989 
     18 CA         27.8645   27.4497    3.4559 C.3       5 UNK         0.0716 
     19 N          27.3753   26.5468    2.4071 N.am      5 UNK        -0.4135 
     20 C          26.0966   26.3034    2.0830 C.2       4 UNK         0.5031 
     21 O          25.1357   26.7227    2.7305 O.2       4 UNK        -0.5229 
     22 CA         25.8286   25.4582    0.8190 C.3       4 UNK         0.0329 
     23 CB         24.6986   26.0661   -0.0384 C.3       4 UNK        -0.2001 
     24 N          27.0008   25.1769   -0.0244 N.am      4 UNK        -0.4303 
     25 C          27.8043   26.0529   -0.6530 C.2       3 UNK         0.5044 
     26 O          27.7154   27.2745   -0.5229 O.2       3 UNK        -0.5152 
     27 CA         28.9287   25.4817   -1.5400 C.3       3 UNK         0.0319 
     28 CB         30.2964   25.7296   -0.8857 C.3       3 UNK        -0.2001 
     29 N          28.7890   24.0492   -1.8122 N.am      3 UNK        -0.4354 
     30 C          27.9147   23.5121   -2.6766 C.2       2 UNK         0.4964 
     31 O          27.1879   24.1756   -3.4161 O.2       2 UNK        -0.5047 
     32 CA         27.8081   21.9742   -2.6968 C.3       2 UNK         0.0288 
     33 CB         28.6686   21.3895   -3.8285 C.3       2 UNK        -0.2113 
     34 N          28.1866   21.3437   -1.4261 N.am      2 UNK        -0.4145 
     35 C          27.5432   21.5220   -0.2632 C.2       1 UNK         0.5006 
     36 O          26.5246   22.2080   -0.1446 O.2       1 UNK        -0.5103 
     37 C          27.3568   28.8920    3.2193 C.2       5 UNK         0.5055 
     38 O          26.8046   29.5099    4.1318 O.2       5 UNK        -0.5220 
     39 N          27.5157   29.3815    1.9774 N.am      6 UNK        -0.4450 
     40 CA         26.9912   30.6620    1.4792 C.3       6 UNK         0.0367 
     41 CB         27.3557   30.8034   -0.0074 C.3       6 UNK        -0.1929 
     42 C          27.4333   31.9183    2.2570 C.2       6 UNK         0.5070 
     43 O          26.7295   32.9282    2.2169 O.2       6 UNK        -0.5237 
     44 N          28.5680   31.8347    2.9556 N.am      7 UNK        -0.4739 
     45 CA         29.0776   32.8220    3.9002 C.3       7 UNK         0.0276 
     46 CB         29.7724   33.9802    3.1537 C.3       7 UNK        -0.1927 
     47 C          30.0094   32.0945    4.8814 C.2       7 UNK         0.5013 
     48 O          30.2121   30.8833    4.7497 O.2       7 UNK        -0.5193 
     49 N          30.5584   32.8361    5.8486 N.am      8 UNK        -0.4253 
     50 CA         31.5334   32.3337    6.8187 C.3       8 UNK         0.0242 
     51 CB         31.6567   33.3540    7.9636 C.3       8 UNK        -0.2000 
     52 C          32.9119   32.0735    6.1827 C.2       8 UNK         0.4948 
     53 O          33.2187   32.6256    5.1216 O.2       8 UNK        -0.5275 
     54 N          33.7305   31.2739    6.8824 N.am      9 UNK        -0.4246 
     55 CA         35.1360   30.9624    6.5949 C.3       9 UNK         0.0261 
     56 CB         36.0278   32.1888    6.8982 C.3       9 UNK        -0.1959 
     57 C          35.3415   30.3823    5.1827 C.2       9 UNK         0.5033 
     58 O          35.0814   29.1969    4.9764 O.2       9 UNK        -0.5390 
     59 N          35.7991   31.2225    4.2455 N.am      10 UNK        -0.4215 
     60 CA         36.0490   30.8834    2.8430 C.3       10 UNK         0.0240 
     61 CB         36.9489   31.9690    2.2274 C.3       10 UNK        -0.1982 
     62 C          34.7750   30.6922    1.9959 C.2       10 UNK         0.4970 
     63 O          34.8993   30.2123    0.8690 O.2       10 UNK        -0.4916 
     64 N          33.6051   31.0722    2.5327 N.am      11 UNK        -0.4279 
     65 CA         32.2739   31.0152    1.9071 C.3       11 UNK         0.1003 
     66 C          32.1766   31.7239    0.5217 C.2       11 UNK         0.5709 
     67 N          31.3847   31.2198   -0.4157 N.am      11 UNK        -0.7358 
     68 O          32.7696   32.7812    0.3159 O.2       11 UNK        -0.4999 
     69 C69        31.5703   29.6278    2.0371 C.3       12 UNK        -0.0954 
     70 S70        32.2723   28.2823    1.0272 S.3       12 UNK        -0.2268 
     71 C71        33.1888   27.3331    2.2767 C.3       12 UNK         0.0203 
     72 H72        25.5263   18.0324    3.1855 H         1 UNK         0.0888 
     73 H73        24.3670   19.0186    2.2899 H         1 UNK         0.0888 
     74 H74        25.3462   19.7463    3.5649 H         1 UNK         0.0888 
     75 H75        26.9894   21.0063    2.7187 H         1 UNK         0.3017 
     76 H76        28.7971   20.0478    0.6862 H         1 UNK         0.0873 
     77 H77        28.6241   22.8918    1.8494 H         1 UNK         0.0745 
     78 H78        29.3949   21.5636    2.6731 H         1 UNK         0.0745 
     79 H79        31.7673   21.6736    2.8400 H         1 UNK         0.0705 
     80 H80        32.8810   22.3463    1.6816 H         1 UNK         0.0705 
     81 H81        33.1047   24.7786    1.3680 H         1 UNK         0.1334 
     82 H82        31.4464   27.3306    4.3909 H         1 UNK         0.1417 
     83 H83        30.3498   23.1872    4.2414 H         1 UNK         0.1562 
     84 H84        30.0414   26.4243    6.1239 H         1 UNK         0.0748 
     85 H85        30.1534   24.7063    6.3948 H         1 UNK         0.0748 
     86 H86        28.0521   27.6119    5.6305 H         1 UNK         0.0940 
     87 H87        26.5128   26.9919    5.1088 H         1 UNK         0.0940 
     88 H88        28.9469   27.4950    3.3309 H         1 UNK         0.0703 
     89 H89        28.0848   26.1438    1.8141 H         1 UNK         0.3081 
     90 H90        25.4835   24.4883    1.1800 H         1 UNK         0.0719 
     91 H91        24.9529   27.0667   -0.3898 H         1 UNK         0.0809 
     92 H92        24.4872   25.4474   -0.9106 H         1 UNK         0.0809 
     93 H93        23.7711   26.1472    0.5298 H         1 UNK         0.0809 
     94 H94        27.1521   24.1900   -0.1997 H         1 UNK         0.2990 
     95 H95        28.9010   26.0196   -2.4900 H         1 UNK         0.0690 
     96 H96        31.1109   25.3431   -1.4983 H         1 UNK         0.0788 
     97 H97        30.3673   25.2673    0.0996 H         1 UNK         0.0788 
     98 H98        30.4708   26.7979   -0.7574 H         1 UNK         0.0788 
     99 H99        29.3621   23.4272   -1.2585 H         1 UNK         0.2993 
    100 H100       26.7630   21.7250   -2.8935 H         1 UNK         0.0949 
    101 H101       28.3920   21.8210   -4.7917 H         1 UNK         0.0767 
    102 H102       29.7299   21.5896   -3.6743 H         1 UNK         0.0767 
    103 H103       28.5375   20.3102   -3.9101 H         1 UNK         0.0767 
    104 H104       29.0280   20.7843   -1.4334 H         1 UNK         0.3013 
    105 H105       27.9139   28.7699    1.2752 H         1 UNK         0.3121 
    106 H106       25.9035   30.6098    1.5584 H         1 UNK         0.0774 
    107 H107       28.4355   30.8186   -0.1572 H         1 UNK         0.0815 
    108 H108       26.9561   31.7297   -0.4227 H         1 UNK         0.0815 
    109 H109       26.9455   29.9836   -0.5978 H         1 UNK         0.0815 
    110 H110       29.0413   30.9416    3.0139 H         1 UNK         0.2987 
    111 H111       28.2401   33.2168    4.4798 H         1 UNK         0.0949 
    112 H112       30.6191   33.6416    2.5592 H         1 UNK         0.0806 
    113 H113       29.0808   34.4857    2.4797 H         1 UNK         0.0806 
    114 H114       30.1443   34.7354    3.8465 H         1 UNK         0.0806 
    115 H115       30.3697   33.8274    5.8718 H         1 UNK         0.3010 
    116 H116       31.1581   31.3917    7.2250 H         1 UNK         0.0829 
    117 H117       30.6941   33.5302    8.4443 H         1 UNK         0.0813 
    118 H118       32.3404   33.0011    8.7369 H         1 UNK         0.0813 
    119 H119       32.0360   34.3136    7.6092 H         1 UNK         0.0813 
    120 H120       33.3636   30.8455    7.7212 H         1 UNK         0.3038 
    121 H121       35.4259   30.1721    7.2893 H         1 UNK         0.0769 
    122 H122       35.7409   33.0683    6.3208 H         1 UNK         0.0811 
    123 H123       37.0767   31.9770    6.6852 H         1 UNK         0.0811 
    124 H124       35.9674   32.4601    7.9522 H         1 UNK         0.0811 
    125 H125       35.9370   32.1878    4.5090 H         1 UNK         0.3204 
    126 H126       36.5924   29.9364    2.8181 H         1 UNK         0.0748 
    127 H127       37.2011   31.7292    1.1934 H         1 UNK         0.0771 
    128 H128       36.4598   32.9441    2.2248 H         1 UNK         0.0771 
    129 H129       37.8883   32.0638    2.7726 H         1 UNK         0.0771 
    130 H130       33.6242   31.5110    3.4474 H         1 UNK         0.2980 
    131 H131       31.6935   31.6748    2.5461 H         1 UNK         0.0545 
    132 H132       31.3077   31.6949   -1.3007 H         1 UNK         0.3459 
    133 H133       30.9349   30.3292   -0.2778 H         1 UNK         0.3459 
    134 H134       30.5158   29.7205    1.7755 H         1 UNK         0.0616 
    135 H135       31.5720   29.3222    3.0831 H         1 UNK         0.0616 
    136 H136       34.1015   26.9514    1.8171 H         1 UNK         0.0634 
    137 H137       33.5149   27.9856    3.0874 H         1 UNK         0.0634 
@<TRIPOS>BOND
     1    1    2 1    
     2    1   72 1    
     3    1   73 1    
     4    1   74 1    
     5    2    3 2    
     6    2    4 am   BACKBONE|DICT|INTERRES
     7    4    5 1    
     8    4   75 1    
     9    5    6 1    
    10    5   35 1    
    11    5   76 1    
    12    6    7 1    
    13    6   77 1    
    14    6   78 1    
    15    7    8 1    
    16    8    9 1    
    17    8   79 1    
    18    8   80 1    
    19    9   10 ar   
    20    9   14 ar   
    21   10   11 ar   
    22   10   81 1    
    23   11   12 ar   
    24   11   71 1    
    25   12   13 ar   
    26   12   82 1    
    27   13   14 ar   
    28   13   15 1    
    29   14   83 1    
    30   15   16 1    
    31   15   84 1    
    32   15   85 1    
    33   16   17 1    
    34   17   18 1    
    35   17   86 1    
    36   17   87 1    
    37   18   19 1    
    38   18   37 1    
    39   18   88 1    
    40   19   20 am   BACKBONE|DICT|INTERRES
    41   19   89 1    
    42   20   21 2    
    43   20   22 1    
    44   22   23 1    
    45   22   24 1    
    46   22   90 1    
    47   23   91 1    
    48   23   92 1    
    49   23   93 1    
    50   24   25 am   BACKBONE|DICT|INTERRES
    51   24   94 1    
    52   25   26 2    
    53   25   27 1    
    54   27   28 1    
    55   27   29 1    
    56   27   95 1    
    57   28   96 1    
    58   28   97 1    
    59   28   98 1    
    60   29   30 am   BACKBONE|DICT|INTERRES
    61   29   99 1    
    62   30   31 2    
    63   30   32 1    
    64   32   33 1    
    65   32   34 1    
    66   32  100 1    
    67   33  101 1    
    68   33  102 1    
    69   33  103 1    
    70   34   35 am   BACKBONE|DICT|INTERRES
    71   34  104 1    
    72   35   36 2    
    73   37   38 2    
    74   37   39 am   BACKBONE|DICT|INTERRES
    75   39   40 1    
    76   39  105 1    
    77   40   41 1    
    78   40   42 1    
    79   40  106 1    
    80   41  107 1    
    81   41  108 1    
    82   41  109 1    
    83   42   43 2    
    84   42   44 am   BACKBONE|DICT|INTERRES
    85   44   45 1    
    86   44  110 1    
    87   45   46 1    
    88   45   47 1    
    89   45  111 1    
    90   46  112 1    
    91   46  113 1    
    92   46  114 1    
    93   47   48 2    
    94   47   49 am   BACKBONE|DICT|INTERRES
    95   49   50 1    
    96   49  115 1    
    97   50   51 1    
    98   50   52 1    
    99   50  116 1    
   100   51  117 1    
   101   51  118 1    
   102   51  119 1    
   103   52   53 2    
   104   52   54 am   BACKBONE|DICT|INTERRES
   105   54   55 1    
   106   54  120 1    
   107   55   56 1    
   108   55   57 1    
   109   55  121 1    
   110   56  122 1    
   111   56  123 1    
   112   56  124 1    
   113   57   58 2    
   114   57   59 am   BACKBONE|DICT|INTERRES
   115   59   60 1    
   116   59  125 1    
   117   60   61 1    
   118   60   62 1    
   119   60  126 1    
   120   61  127 1    
   121   61  128 1    
   122   61  129 1    
   123   62   63 2    
   124   62   64 am   BACKBONE|DICT|INTERRES
   125   64   65 1    
   126   64  130 1    
   127   65   66 1    
   128   65   69 1    
   129   65  131 1    
   130   66   67 am   BACKBONE|DICT|INTERRES
   131   66   68 2    
   132   67  132 1    
   133   67  133 1    
   134   69   70 1    
   135   69  134 1    
   136   69  135 1    
   137   70   71 1    
   138   71  136 1    
   139   71  137 1    
@<TRIPOS>SUBSTRUCTURE
     1 UNK         1 GROUP             0       ****    0 ROOT    
