@<TRIPOS>MOLECULE
3R136
137   139    1
SMALL
USER_CHARGES


@<TRIPOS>ATOM
      1 CA         28.8231   21.4328    4.4762 C.3       0 UNK        -0.1979 
      2 C          28.4790   21.2337    3.0081 C.2       0 UNK         0.4864 
      3 O          27.5815   20.4521    2.6887 O.2       0 UNK        -0.5359 
      4 N          29.1732   21.9403    2.1065 N.am      1 UNK        -0.4318 
      5 CA         29.0458   21.8282    0.6465 C.3       1 UNK         0.0824 
      6 C6         30.3692   22.1764   -0.0895 C.3       12 UNK        -0.0944 
      7 S7         31.8024   21.2467    0.5702 S.3       12 UNK        -0.2672 
      8 C8         33.1855   22.4372    0.4369 C.3       12 UNK         0.0333 
      9 C9         32.8865   23.8178    1.0160 C.ar      12 UNK        -0.0807 
     10 C10        33.2269   24.9598    0.2857 C.ar      12 UNK        -0.0894 
     11 C11        32.9172   26.2344    0.7674 C.ar      12 UNK        -0.0804 
     12 C12        32.2359   26.3639    1.9823 C.ar      12 UNK        -0.0824 
     13 C13        31.9137   25.2312    2.7362 C.ar      12 UNK        -0.0762 
     14 C14        32.2627   23.9639    2.2593 C.ar      12 UNK        -0.0782 
     15 C15        31.1764   25.3632    4.0593 C.3       12 UNK         0.0230 
     16 S16        29.4322   24.8837    3.8600 S.3       12 UNK        -0.2608 
     17 C17        28.5329   26.4104    4.2836 C.3       12 UNK        -0.0989 
     18 CA         28.7664   27.5812    3.2983 C.3       5 UNK         0.0716 
     19 N          28.5881   27.1901    1.8969 N.am      5 UNK        -0.4135 
     20 C          29.0727   27.8808    0.8549 C.2       4 UNK         0.5031 
     21 O          29.7133   28.9258    0.9626 O.2       4 UNK        -0.5229 
     22 CA         28.7306   27.3511   -0.5495 C.3       4 UNK         0.0329 
     23 CB         29.7513   26.2939   -0.9929 C.3       4 UNK        -0.2001 
     24 N          27.3760   26.7974   -0.6425 N.am      4 UNK        -0.4303 
     25 C          26.2581   27.4965   -0.3938 C.2       3 UNK         0.5044 
     26 O          26.2657   28.6854   -0.0758 O.2       3 UNK        -0.5152 
     27 CA         24.9051   26.7677   -0.4749 C.3       3 UNK         0.0319 
     28 CB         24.1501   27.1859   -1.7465 C.3       3 UNK        -0.2001 
     29 N          24.9825   25.3053   -0.4238 N.am      3 UNK        -0.4354 
     30 C          25.4407   24.5761    0.6032 C.2       2 UNK         0.4964 
     31 O          25.9079   25.0663    1.6339 O.2       2 UNK        -0.5047 
     32 CA         25.3715   23.0415    0.4573 C.3       2 UNK         0.0288 
     33 CB         24.8087   22.5519   -0.8981 C.3       2 UNK        -0.2113 
     34 N          26.6627   22.4027    0.7257 N.am      2 UNK        -0.4145 
     35 C          27.8389   22.6456    0.1284 C.2       1 UNK         0.5006 
     36 O          27.9875   23.4732   -0.7742 O.2       1 UNK        -0.5103 
     37 C          27.8855   28.7850    3.6898 C.2       5 UNK         0.5055 
     38 O          28.2331   29.5010    4.6285 O.2       5 UNK        -0.5220 
     39 N          26.7635   28.9905    2.9835 N.am      6 UNK        -0.4450 
     40 CA         25.9066   30.1669    3.1412 C.3       6 UNK         0.0367 
     41 CB         24.4892   29.8593    2.6307 C.3       6 UNK        -0.1929 
     42 C          26.5036   31.3853    2.4196 C.2       6 UNK         0.5070 
     43 O          26.4074   32.4988    2.9356 O.2       6 UNK        -0.5237 
     44 N          27.1235   31.1510    1.2532 N.am      7 UNK        -0.4739 
     45 CA         27.8432   32.1567    0.4707 C.3       7 UNK         0.0276 
     46 CB         28.1875   31.5859   -0.9144 C.3       7 UNK        -0.1927 
     47 C          29.1046   32.6754    1.1825 C.2       7 UNK         0.5013 
     48 O          29.3402   33.8848    1.1714 O.2       7 UNK        -0.5193 
     49 N          29.8763   31.7719    1.8011 N.am      8 UNK        -0.4253 
     50 CA         31.0620   32.1017    2.5858 C.3       8 UNK         0.0242 
     51 CB         32.2993   32.1520    1.6702 C.3       8 UNK        -0.2000 
     52 C          31.2305   31.0669    3.7015 C.2       8 UNK         0.4948 
     53 O          31.5844   29.9238    3.4172 O.2       8 UNK        -0.5275 
     54 N          31.0095   31.4797    4.9565 N.am      9 UNK        -0.4246 
     55 CA         31.1958   30.6258    6.1360 C.3       9 UNK         0.0261 
     56 CB         30.5770   31.3016    7.3699 C.3       9 UNK        -0.1959 
     57 C          32.6726   30.2741    6.3883 C.2       9 UNK         0.5033 
     58 O          32.9743   29.1373    6.7536 O.2       9 UNK        -0.5390 
     59 N          33.5690   31.2428    6.1456 N.am      10 UNK        -0.4215 
     60 CA         35.0251   31.1072    6.2788 C.3       10 UNK         0.0240 
     61 CB         35.6713   32.4966    6.1517 C.3       10 UNK        -0.1982 
     62 C          35.6615   30.1252    5.2760 C.2       10 UNK         0.4970 
     63 O          36.7680   29.6455    5.5249 O.2       10 UNK        -0.4916 
     64 N          34.9565   29.8425    4.1741 N.am      11 UNK        -0.4279 
     65 CA         35.3034   28.8170    3.1831 C.3       11 UNK         0.1003 
     66 C          35.1265   27.3606    3.7158 C.2       11 UNK         0.5709 
     67 N          34.3529   27.1254    4.7721 N.am      11 UNK        -0.7358 
     68 O          35.7460   26.4344    3.1994 O.2       11 UNK        -0.4999 
     69 C69        34.5282   29.1094    1.8715 C.3       12 UNK        -0.0954 
     70 S70        34.9509   28.0916    0.4205 S.3       12 UNK        -0.2268 
     71 C71        33.3050   27.4613   -0.0455 C.3       12 UNK         0.0203 
     72 H72        28.0663   22.0507    4.9586 H         1 UNK         0.0888 
     73 H73        28.8594   20.4721    4.9891 H         1 UNK         0.0888 
     74 H74        29.7918   21.9160    4.6017 H         1 UNK         0.0888 
     75 H75        29.8455   22.6220    2.4270 H         1 UNK         0.3017 
     76 H76        28.8243   20.7852    0.4093 H         1 UNK         0.0873 
     77 H77        30.2817   21.9500   -1.1536 H         1 UNK         0.0745 
     78 H78        30.5606   23.2470   -0.0271 H         1 UNK         0.0745 
     79 H79        33.4574   22.5177   -0.6167 H         1 UNK         0.0705 
     80 H80        34.0555   22.0233    0.9480 H         1 UNK         0.0705 
     81 H81        33.7304   24.8591   -0.6661 H         1 UNK         0.1334 
     82 H82        31.9650   27.3455    2.3466 H         1 UNK         0.1417 
     83 H83        32.0169   23.0866    2.8411 H         1 UNK         0.1562 
     84 H84        31.2608   26.3773    4.4527 H         1 UNK         0.0748 
     85 H85        31.6399   24.7123    4.8020 H         1 UNK         0.0748 
     86 H86        28.8124   26.7039    5.2977 H         1 UNK         0.0940 
     87 H87        27.4718   26.1550    4.3249 H         1 UNK         0.0940 
     88 H88        29.8004   27.9101    3.4135 H         1 UNK         0.0703 
     89 H89        28.0615   26.3430    1.7284 H         1 UNK         0.3081 
     90 H90        28.7857   28.1909   -1.2450 H         1 UNK         0.0719 
     91 H91        30.7414   26.7353   -1.0973 H         1 UNK         0.0809 
     92 H92        29.4894   25.8593   -1.9577 H         1 UNK         0.0809 
     93 H93        29.8307   25.4829   -0.2685 H         1 UNK         0.0809 
     94 H94        27.2968   25.8152   -0.8740 H         1 UNK         0.2990 
     95 H95        24.3208   27.0922    0.3888 H         1 UNK         0.0690 
     96 H96        23.1449   26.7645   -1.7696 H         1 UNK         0.0788 
     97 H97        24.6716   26.8652   -2.6493 H         1 UNK         0.0788 
     98 H98        24.0442   28.2707   -1.7997 H         1 UNK         0.0788 
     99 H99        24.6402   24.8096   -1.2345 H         1 UNK         0.2993 
    100 H100       24.6926   22.6999    1.2402 H         1 UNK         0.0949 
    101 H101       23.7967   22.9221   -1.0680 H         1 UNK         0.0767 
    102 H102       25.4290   22.8646   -1.7393 H         1 UNK         0.0767 
    103 H103       24.7514   21.4635   -0.9235 H         1 UNK         0.0767 
    104 H104       26.6746   21.7201    1.4787 H         1 UNK         0.3013 
    105 H105       26.5591   28.3807    2.2040 H         1 UNK         0.3121 
    106 H106       25.8334   30.4091    4.2039 H         1 UNK         0.0774 
    107 H107       23.8247   30.7063    2.8064 H         1 UNK         0.0815 
    108 H108       24.4723   29.6545    1.5604 H         1 UNK         0.0815 
    109 H109       24.0596   28.9993    3.1446 H         1 UNK         0.0815 
    110 H110       27.0802   30.2144    0.8630 H         1 UNK         0.2987 
    111 H111       27.1721   33.0068    0.3288 H         1 UNK         0.0949 
    112 H112       27.2919   31.2572   -1.4422 H         1 UNK         0.0806 
    113 H113       28.6734   32.3394   -1.5356 H         1 UNK         0.0806 
    114 H114       28.8653   30.7351   -0.8456 H         1 UNK         0.0806 
    115 H115       29.6563   30.7810    1.7231 H         1 UNK         0.3010 
    116 H116       30.9351   33.0838    3.0467 H         1 UNK         0.0829 
    117 H117       33.2096   32.3233    2.2460 H         1 UNK         0.0813 
    118 H118       32.4268   31.2190    1.1196 H         1 UNK         0.0813 
    119 H119       32.2193   32.9587    0.9415 H         1 UNK         0.0813 
    120 H120       30.6926   32.4250    5.1190 H         1 UNK         0.3038 
    121 H121       30.6619   29.6890    5.9604 H         1 UNK         0.0769 
    122 H122       31.0451   32.2624    7.5872 H         1 UNK         0.0811 
    123 H123       30.6919   30.6747    8.2553 H         1 UNK         0.0811 
    124 H124       29.5086   31.4702    7.2321 H         1 UNK         0.0811 
    125 H125       33.2244   32.1443    5.8489 H         1 UNK         0.3204 
    126 H126       35.2319   30.7227    7.2799 H         1 UNK         0.0748 
    127 H127       36.7534   32.4376    6.2789 H         1 UNK         0.0771 
    128 H128       35.4826   32.9427    5.1743 H         1 UNK         0.0771 
    129 H129       35.2962   33.1810    6.9130 H         1 UNK         0.0771 
    130 H130       34.0401   30.2526    4.0724 H         1 UNK         0.2980 
    131 H131       36.3661   28.9312    2.9615 H         1 UNK         0.0545 
    132 H132       33.8771   27.8766    5.2551 H         1 UNK         0.3459 
    133 H133       34.2747   26.1817    5.1129 H         1 UNK         0.3459 
    134 H134       33.4597   29.0356    2.0548 H         1 UNK         0.0616 
    135 H135       34.7010   30.1454    1.5766 H         1 UNK         0.0616 
    136 H136       32.5541   28.2461    0.0635 H         1 UNK         0.0634 
    137 H137       33.3212   27.2096   -1.1068 H         1 UNK         0.0634 
@<TRIPOS>BOND
     1    1    2 1    
     2    1   72 1    
     3    1   73 1    
     4    1   74 1    
     5    2    3 2    
     6    2    4 am   BACKBONE|DICT|INTERRES
     7    4    5 1    
     8    4   75 1    
     9    5    6 1    
    10    5   35 1    
    11    5   76 1    
    12    6    7 1    
    13    6   77 1    
    14    6   78 1    
    15    7    8 1    
    16    8    9 1    
    17    8   79 1    
    18    8   80 1    
    19    9   10 ar   
    20    9   14 ar   
    21   10   11 ar   
    22   10   81 1    
    23   11   12 ar   
    24   11   71 1    
    25   12   13 ar   
    26   12   82 1    
    27   13   14 ar   
    28   13   15 1    
    29   14   83 1    
    30   15   16 1    
    31   15   84 1    
    32   15   85 1    
    33   16   17 1    
    34   17   18 1    
    35   17   86 1    
    36   17   87 1    
    37   18   19 1    
    38   18   37 1    
    39   18   88 1    
    40   19   20 am   BACKBONE|DICT|INTERRES
    41   19   89 1    
    42   20   21 2    
    43   20   22 1    
    44   22   23 1    
    45   22   24 1    
    46   22   90 1    
    47   23   91 1    
    48   23   92 1    
    49   23   93 1    
    50   24   25 am   BACKBONE|DICT|INTERRES
    51   24   94 1    
    52   25   26 2    
    53   25   27 1    
    54   27   28 1    
    55   27   29 1    
    56   27   95 1    
    57   28   96 1    
    58   28   97 1    
    59   28   98 1    
    60   29   30 am   BACKBONE|DICT|INTERRES
    61   29   99 1    
    62   30   31 2    
    63   30   32 1    
    64   32   33 1    
    65   32   34 1    
    66   32  100 1    
    67   33  101 1    
    68   33  102 1    
    69   33  103 1    
    70   34   35 am   BACKBONE|DICT|INTERRES
    71   34  104 1    
    72   35   36 2    
    73   37   38 2    
    74   37   39 am   BACKBONE|DICT|INTERRES
    75   39   40 1    
    76   39  105 1    
    77   40   41 1    
    78   40   42 1    
    79   40  106 1    
    80   41  107 1    
    81   41  108 1    
    82   41  109 1    
    83   42   43 2    
    84   42   44 am   BACKBONE|DICT|INTERRES
    85   44   45 1    
    86   44  110 1    
    87   45   46 1    
    88   45   47 1    
    89   45  111 1    
    90   46  112 1    
    91   46  113 1    
    92   46  114 1    
    93   47   48 2    
    94   47   49 am   BACKBONE|DICT|INTERRES
    95   49   50 1    
    96   49  115 1    
    97   50   51 1    
    98   50   52 1    
    99   50  116 1    
   100   51  117 1    
   101   51  118 1    
   102   51  119 1    
   103   52   53 2    
   104   52   54 am   BACKBONE|DICT|INTERRES
   105   54   55 1    
   106   54  120 1    
   107   55   56 1    
   108   55   57 1    
   109   55  121 1    
   110   56  122 1    
   111   56  123 1    
   112   56  124 1    
   113   57   58 2    
   114   57   59 am   BACKBONE|DICT|INTERRES
   115   59   60 1    
   116   59  125 1    
   117   60   61 1    
   118   60   62 1    
   119   60  126 1    
   120   61  127 1    
   121   61  128 1    
   122   61  129 1    
   123   62   63 2    
   124   62   64 am   BACKBONE|DICT|INTERRES
   125   64   65 1    
   126   64  130 1    
   127   65   66 1    
   128   65   69 1    
   129   65  131 1    
   130   66   67 am   BACKBONE|DICT|INTERRES
   131   66   68 2    
   132   67  132 1    
   133   67  133 1    
   134   69   70 1    
   135   69  134 1    
   136   69  135 1    
   137   70   71 1    
   138   71  136 1    
   139   71  137 1    
@<TRIPOS>SUBSTRUCTURE
     1 UNK         1 GROUP             0       ****    0 ROOT    
