@<TRIPOS>MOLECULE
3R136
137   139    1
SMALL
USER_CHARGES


@<TRIPOS>ATOM
      1 CA         31.3331   24.9403   -3.0185 C.3       0 UNK        -0.1979 
      2 C          30.3203   24.7632   -1.8991 C.2       0 UNK         0.4864 
      3 O          29.2726   25.4121   -1.9165 O.2       0 UNK        -0.5359 
      4 N          30.6121   23.8779   -0.9343 N.am      1 UNK        -0.4318 
      5 CA         29.8394   23.6222    0.2943 C.3       1 UNK         0.0824 
      6 C6         30.5279   22.5712    1.2014 C.3       12 UNK        -0.0944 
      7 S7         32.2460   23.0114    1.6374 S.3       12 UNK        -0.2672 
      8 C8         32.3293   22.5602    3.4014 C.3       12 UNK         0.0333 
      9 C9         32.0243   23.7360    4.3216 C.ar      12 UNK        -0.0807 
     10 C10        33.0722   24.4956    4.8544 C.ar      12 UNK        -0.0894 
     11 C11        32.8143   25.5373    5.7509 C.ar      12 UNK        -0.0804 
     12 C12        31.4896   25.8246    6.0932 C.ar      12 UNK        -0.0824 
     13 C13        30.4262   25.0951    5.5555 C.ar      12 UNK        -0.0762 
     14 C14        30.7050   24.0383    4.6769 C.ar      12 UNK        -0.0782 
     15 C15        29.0143   25.4771    6.0036 C.3       12 UNK         0.0230 
     16 S16        27.6249   24.7028    5.1047 S.3       12 UNK        -0.2608 
     17 C17        27.7029   25.4076    3.4186 C.3       12 UNK        -0.0989 
     18 CA         27.9516   26.9293    3.2398 C.3       5 UNK         0.0716 
     19 N          28.1163   27.2251    1.8096 N.am      5 UNK        -0.4135 
     20 C          28.5751   28.3621    1.2653 C.2       4 UNK         0.5031 
     21 O          29.0056   29.3103    1.9190 O.2       4 UNK        -0.5229 
     22 CA         28.5197   28.4773   -0.2694 C.3       4 UNK         0.0329 
     23 CB         29.9293   28.4338   -0.8793 C.3       4 UNK        -0.2001 
     24 N          27.6899   27.4582   -0.9224 N.am      4 UNK        -0.4303 
     25 C          26.3522   27.4020   -0.8543 C.2       3 UNK         0.5044 
     26 O          25.6839   28.1456   -0.1351 O.2       3 UNK        -0.5152 
     27 CA         25.6412   26.3384   -1.7023 C.3       3 UNK         0.0319 
     28 CB         25.4646   26.8256   -3.1503 C.3       3 UNK        -0.2001 
     29 N          26.3433   25.0509   -1.6961 N.am      3 UNK        -0.4354 
     30 C          25.7336   23.8593   -1.5910 C.2       2 UNK         0.4964 
     31 O          24.5124   23.7228   -1.5036 O.2       2 UNK        -0.5047 
     32 CA         26.6148   22.5921   -1.5865 C.3       2 UNK         0.0288 
     33 CB         26.6298   21.9459   -2.9817 C.3       2 UNK        -0.2113 
     34 N          27.9947   22.8262   -1.1563 N.am      2 UNK        -0.4145 
     35 C          28.3588   23.2334    0.0677 C.2       1 UNK         0.5006 
     36 O          27.5648   23.3384    1.0016 O.2       1 UNK        -0.5103 
     37 C          26.8636   27.8093    3.9090 C.2       5 UNK         0.5055 
     38 O          26.8091   27.8839    5.1368 O.2       5 UNK        -0.5220 
     39 N          26.0428   28.5100    3.1092 N.am      6 UNK        -0.4450 
     40 CA         25.1267   29.5598    3.5664 C.3       6 UNK         0.0367 
     41 CB         24.2087   29.9581    2.3993 C.3       6 UNK        -0.1929 
     42 C          25.8380   30.8055    4.1415 C.2       6 UNK         0.5070 
     43 O          25.1811   31.6171    4.7948 O.2       6 UNK        -0.5237 
     44 N          27.1468   30.9453    3.8961 N.am      7 UNK        -0.4739 
     45 CA         28.0098   32.0022    4.4145 C.3       7 UNK         0.0276 
     46 CB         28.0900   33.1328    3.3679 C.3       7 UNK        -0.1927 
     47 C          29.3887   31.4070    4.7521 C.2       7 UNK         0.5013 
     48 O          29.5527   30.1854    4.7660 O.2       7 UNK        -0.5193 
     49 N          30.3761   32.2803    4.9907 N.am      8 UNK        -0.4253 
     50 CA         31.7881   31.9123    5.1598 C.3       8 UNK         0.0242 
     51 CB         32.5102   33.0353    5.9231 C.3       8 UNK        -0.2000 
     52 C          32.5052   31.6142    3.8262 C.2       8 UNK         0.4948 
     53 O          33.6790   31.2428    3.8457 O.2       8 UNK        -0.5275 
     54 N          31.8074   31.7822    2.6927 N.am      9 UNK        -0.4246 
     55 CA         32.3120   31.5963    1.3294 C.3       9 UNK         0.0261 
     56 CB         31.2115   31.9892    0.3301 C.3       9 UNK        -0.1959 
     57 C          32.8452   30.1826    1.0337 C.2       9 UNK         0.5033 
     58 O          33.7723   30.0506    0.2340 O.2       9 UNK        -0.5390 
     59 N          32.2789   29.1606    1.6921 N.am      10 UNK        -0.4215 
     60 CA         32.7786   27.7826    1.6517 C.3       10 UNK         0.0240 
     61 CB         31.7301   26.8346    2.2527 C.3       10 UNK        -0.1982 
     62 C          34.1220   27.5978    2.3797 C.2       10 UNK         0.4970 
     63 O          34.8806   26.6976    2.0176 O.2       10 UNK        -0.4916 
     64 N          34.3792   28.4279    3.3961 N.am      11 UNK        -0.4279 
     65 CA         35.5713   28.3653    4.2482 C.3       11 UNK         0.1003 
     66 C          36.7355   29.2181    3.6826 C.2       11 UNK         0.5709 
     67 N          36.4588   30.3944    3.1318 N.am      11 UNK        -0.7358 
     68 O          37.8926   28.8090    3.7404 O.2       11 UNK        -0.4999 
     69 C69        35.2662   28.7644    5.7198 C.3       12 UNK        -0.0954 
     70 S70        33.6936   28.1146    6.3830 S.3       12 UNK        -0.2268 
     71 C71        33.9672   26.3103    6.3880 C.3       12 UNK         0.0203 
     72 H72        32.2077   24.3045   -2.8823 H         1 UNK         0.0888 
     73 H73        30.8780   24.6943   -3.9774 H         1 UNK         0.0888 
     74 H74        31.6682   25.9765   -3.0558 H         1 UNK         0.0888 
     75 H75        31.4890   23.3780   -0.9844 H         1 UNK         0.3017 
     76 H76        29.8198   24.5678    0.8389 H         1 UNK         0.0873 
     77 H77        29.9541   22.4359    2.1198 H         1 UNK         0.0745 
     78 H78        30.5453   21.5960    0.7109 H         1 UNK         0.0745 
     79 H79        33.3326   22.1849    3.6086 H         1 UNK         0.0705 
     80 H80        31.6561   21.7278    3.6116 H         1 UNK         0.0705 
     81 H81        34.0931   24.2586    4.5870 H         1 UNK         0.1334 
     82 H82        31.2836   26.6217    6.7948 H         1 UNK         0.1417 
     83 H83        29.9038   23.4350    4.2770 H         1 UNK         0.1562 
     84 H84        28.9045   26.5611    5.9753 H         1 UNK         0.0748 
     85 H85        28.9146   25.1989    7.0535 H         1 UNK         0.0748 
     86 H86        26.7794   25.1228    2.9109 H         1 UNK         0.0940 
     87 H87        28.4972   24.8654    2.9065 H         1 UNK         0.0940 
     88 H88        28.8978   27.1857    3.7194 H         1 UNK         0.0703 
     89 H89        27.7749   26.5206    1.1731 H         1 UNK         0.3081 
     90 H90        28.0854   29.4528   -0.4985 H         1 UNK         0.0719 
     91 H91        30.4580   27.5173   -0.6195 H         1 UNK         0.0809 
     92 H92        29.8953   28.5028   -1.9667 H         1 UNK         0.0809 
     93 H93        30.5325   29.2677   -0.5278 H         1 UNK         0.0809 
     94 H94        28.1955   26.7796   -1.4898 H         1 UNK         0.2990 
     95 H95        24.6480   26.2178   -1.2641 H         1 UNK         0.0690 
     96 H96        26.4239   26.9447   -3.6555 H         1 UNK         0.0788 
     97 H97        24.9552   27.7898   -3.1803 H         1 UNK         0.0788 
     98 H98        24.8653   26.1248   -3.7318 H         1 UNK         0.0788 
     99 H99        27.3563   25.0754   -1.7740 H         1 UNK         0.2993 
    100 H100       26.1624   21.8877   -0.8850 H         1 UNK         0.0949 
    101 H101       27.0893   22.5999   -3.7241 H         1 UNK         0.0767 
    102 H102       27.1774   21.0032   -2.9772 H         1 UNK         0.0767 
    103 H103       25.6164   21.7278   -3.3220 H         1 UNK         0.0767 
    104 H104       28.7085   22.7766   -1.8685 H         1 UNK         0.3013 
    105 H105       26.1195   28.3913    2.1064 H         1 UNK         0.3121 
    106 H106       24.5082   29.1429    4.3639 H         1 UNK         0.0774 
    107 H107       23.4827   30.7104    2.7106 H         1 UNK         0.0815 
    108 H108       24.7757   30.3761    1.5663 H         1 UNK         0.0815 
    109 H109       23.6468   29.1021    2.0248 H         1 UNK         0.0815 
    110 H110       27.6422   30.2085    3.4033 H         1 UNK         0.2987 
    111 H111       27.5944   32.3963    5.3447 H         1 UNK         0.0949 
    112 H112       28.5592   32.7931    2.4435 H         1 UNK         0.0806 
    113 H113       27.0962   33.5027    3.1146 H         1 UNK         0.0806 
    114 H114       28.6570   33.9883    3.7354 H         1 UNK         0.0806 
    115 H115       30.1660   33.2685    4.9848 H         1 UNK         0.3010 
    116 H116       31.8455   31.0024    5.7618 H         1 UNK         0.0829 
    117 H117       33.5527   32.7730    6.1101 H         1 UNK         0.0813 
    118 H118       32.5055   33.9723    5.3649 H         1 UNK         0.0813 
    119 H119       32.0471   33.2177    6.8930 H         1 UNK         0.0813 
    120 H120       30.8455   32.0724    2.7770 H         1 UNK         0.3038 
    121 H121       33.1503   32.2840    1.1996 H         1 UNK         0.0769 
    122 H122       31.5351   31.8211   -0.6982 H         1 UNK         0.0811 
    123 H123       30.9573   33.0457    0.4179 H         1 UNK         0.0811 
    124 H124       30.2986   31.4134    0.4861 H         1 UNK         0.0811 
    125 H125       31.4857   29.3512    2.2917 H         1 UNK         0.3204 
    126 H126       32.9337   27.5019    0.6077 H         1 UNK         0.0748 
    127 H127       32.1349   25.8296    2.3631 H         1 UNK         0.0771 
    128 H128       31.4023   27.1599    3.2408 H         1 UNK         0.0771 
    129 H129       30.8584   26.7458    1.6109 H         1 UNK         0.0771 
    130 H130       33.7508   29.1969    3.5895 H         1 UNK         0.2980 
    131 H131       35.9242   27.3330    4.2629 H         1 UNK         0.0545 
    132 H132       35.5089   30.7493    3.1595 H         1 UNK         0.3459 
    133 H133       37.2034   30.9587    2.7559 H         1 UNK         0.3459 
    134 H134       36.0793   28.4461    6.3743 H         1 UNK         0.0616 
    135 H135       35.2105   29.8508    5.8146 H         1 UNK         0.0616 
    136 H136       34.9060   26.0715    5.8888 H         1 UNK         0.0634 
    137 H137       34.0810   25.9804    7.4211 H         1 UNK         0.0634 
@<TRIPOS>BOND
     1    1    2 1    
     2    1   72 1    
     3    1   73 1    
     4    1   74 1    
     5    2    3 2    
     6    2    4 am   BACKBONE|DICT|INTERRES
     7    4    5 1    
     8    4   75 1    
     9    5    6 1    
    10    5   35 1    
    11    5   76 1    
    12    6    7 1    
    13    6   77 1    
    14    6   78 1    
    15    7    8 1    
    16    8    9 1    
    17    8   79 1    
    18    8   80 1    
    19    9   10 ar   
    20    9   14 ar   
    21   10   11 ar   
    22   10   81 1    
    23   11   12 ar   
    24   11   71 1    
    25   12   13 ar   
    26   12   82 1    
    27   13   14 ar   
    28   13   15 1    
    29   14   83 1    
    30   15   16 1    
    31   15   84 1    
    32   15   85 1    
    33   16   17 1    
    34   17   18 1    
    35   17   86 1    
    36   17   87 1    
    37   18   19 1    
    38   18   37 1    
    39   18   88 1    
    40   19   20 am   BACKBONE|DICT|INTERRES
    41   19   89 1    
    42   20   21 2    
    43   20   22 1    
    44   22   23 1    
    45   22   24 1    
    46   22   90 1    
    47   23   91 1    
    48   23   92 1    
    49   23   93 1    
    50   24   25 am   BACKBONE|DICT|INTERRES
    51   24   94 1    
    52   25   26 2    
    53   25   27 1    
    54   27   28 1    
    55   27   29 1    
    56   27   95 1    
    57   28   96 1    
    58   28   97 1    
    59   28   98 1    
    60   29   30 am   BACKBONE|DICT|INTERRES
    61   29   99 1    
    62   30   31 2    
    63   30   32 1    
    64   32   33 1    
    65   32   34 1    
    66   32  100 1    
    67   33  101 1    
    68   33  102 1    
    69   33  103 1    
    70   34   35 am   BACKBONE|DICT|INTERRES
    71   34  104 1    
    72   35   36 2    
    73   37   38 2    
    74   37   39 am   BACKBONE|DICT|INTERRES
    75   39   40 1    
    76   39  105 1    
    77   40   41 1    
    78   40   42 1    
    79   40  106 1    
    80   41  107 1    
    81   41  108 1    
    82   41  109 1    
    83   42   43 2    
    84   42   44 am   BACKBONE|DICT|INTERRES
    85   44   45 1    
    86   44  110 1    
    87   45   46 1    
    88   45   47 1    
    89   45  111 1    
    90   46  112 1    
    91   46  113 1    
    92   46  114 1    
    93   47   48 2    
    94   47   49 am   BACKBONE|DICT|INTERRES
    95   49   50 1    
    96   49  115 1    
    97   50   51 1    
    98   50   52 1    
    99   50  116 1    
   100   51  117 1    
   101   51  118 1    
   102   51  119 1    
   103   52   53 2    
   104   52   54 am   BACKBONE|DICT|INTERRES
   105   54   55 1    
   106   54  120 1    
   107   55   56 1    
   108   55   57 1    
   109   55  121 1    
   110   56  122 1    
   111   56  123 1    
   112   56  124 1    
   113   57   58 2    
   114   57   59 am   BACKBONE|DICT|INTERRES
   115   59   60 1    
   116   59  125 1    
   117   60   61 1    
   118   60   62 1    
   119   60  126 1    
   120   61  127 1    
   121   61  128 1    
   122   61  129 1    
   123   62   63 2    
   124   62   64 am   BACKBONE|DICT|INTERRES
   125   64   65 1    
   126   64  130 1    
   127   65   66 1    
   128   65   69 1    
   129   65  131 1    
   130   66   67 am   BACKBONE|DICT|INTERRES
   131   66   68 2    
   132   67  132 1    
   133   67  133 1    
   134   69   70 1    
   135   69  134 1    
   136   69  135 1    
   137   70   71 1    
   138   71  136 1    
   139   71  137 1    
@<TRIPOS>SUBSTRUCTURE
     1 UNK         1 GROUP             0       ****    0 ROOT    
