@<TRIPOS>MOLECULE
3R136
137   139    1
SMALL
USER_CHARGES


@<TRIPOS>ATOM
      1 CA         35.1867   22.1802    2.2665 C.3       0 UNK        -0.1979 
      2 C          33.8343   22.1832    1.5684 C.2       0 UNK         0.4864 
      3 O          33.4459   21.1599    1.0046 O.2       0 UNK        -0.5359 
      4 N          33.1303   23.3223    1.6142 N.am      1 UNK        -0.4318 
      5 CA         31.8252   23.5992    1.0019 C.3       1 UNK         0.0824 
      6 C6         30.6533   22.7696    1.5877 C.3       12 UNK        -0.0944 
      7 S7         30.2011   23.3539    3.2522 S.3       12 UNK        -0.2672 
      8 C8         29.1105   24.7355    2.7883 C.3       12 UNK         0.0333 
      9 C9         28.5047   25.4024    4.0083 C.ar      12 UNK        -0.0807 
     10 C10        29.2345   26.3503    4.7284 C.ar      12 UNK        -0.0894 
     11 C11        28.6871   26.9626    5.8610 C.ar      12 UNK        -0.0804 
     12 C12        27.3709   26.6610    6.2291 C.ar      12 UNK        -0.0824 
     13 C13        26.6190   25.7389    5.4938 C.ar      12 UNK        -0.0762 
     14 C14        27.2033   25.0898    4.4028 C.ar      12 UNK        -0.0782 
     15 C15        25.1661   25.4627    5.8530 C.3       12 UNK         0.0230 
     16 S16        24.0445   25.8282    4.4610 S.3       12 UNK        -0.2608 
     17 C17        24.2648   27.6303    4.2483 C.3       12 UNK        -0.0989 
     18 CA         25.3408   28.0204    3.1968 C.3       5 UNK         0.0716 
     19 N          25.1701   27.3022    1.9265 N.am      5 UNK        -0.4135 
     20 C          25.8649   27.4809    0.7931 C.2       4 UNK         0.5031 
     21 O          26.6962   28.3739    0.6164 O.2       4 UNK        -0.5229 
     22 CA         25.5603   26.4850   -0.3441 C.3       4 UNK         0.0329 
     23 CB         24.1815   26.7723   -0.9641 C.3       4 UNK        -0.2001 
     24 N          26.5690   26.5253   -1.4084 N.am      4 UNK        -0.4303 
     25 C          27.8429   26.1293   -1.2841 C.2       3 UNK         0.5044 
     26 O          28.2982   25.5661   -0.2851 O.2       3 UNK        -0.5152 
     27 CA         28.7563   26.4174   -2.4854 C.3       3 UNK         0.0319 
     28 CB         28.8387   27.9256   -2.7915 C.3       3 UNK        -0.2001 
     29 N          30.0969   25.9108   -2.2061 N.am      3 UNK        -0.4354 
     30 C          30.9425   25.3874   -3.1025 C.2       2 UNK         0.4964 
     31 O          30.6925   25.2967   -4.3052 O.2       2 UNK        -0.5047 
     32 CA         32.3022   24.8847   -2.5835 C.3       2 UNK         0.0288 
     33 CB         33.4095   25.8996   -2.9136 C.3       2 UNK        -0.2113 
     34 N          32.2912   24.6585   -1.1389 N.am      2 UNK        -0.4145 
     35 C          31.8870   23.5348   -0.5369 C.2       1 UNK         0.5006 
     36 O          31.5634   22.5097   -1.1412 O.2       1 UNK        -0.5103 
     37 C          25.3898   29.5543    3.0295 C.2       5 UNK         0.5055 
     38 O          24.4074   30.1534    2.5849 O.2       5 UNK        -0.5220 
     39 N          26.5266   30.1488    3.4020 N.am      6 UNK        -0.4450 
     40 CA         26.8379   31.5728    3.3453 C.3       6 UNK         0.0367 
     41 CB         27.0736   32.0163    1.8865 C.3       6 UNK        -0.1929 
     42 C          28.0889   31.8009    4.2037 C.2       6 UNK         0.5070 
     43 O          28.7138   30.8305    4.6372 O.2       6 UNK        -0.5237 
     44 N          28.4464   33.0725    4.4251 N.am      7 UNK        -0.4739 
     45 CA         29.6192   33.4772    5.2133 C.3       7 UNK         0.0276 
     46 CB         29.5503   34.9898    5.4803 C.3       7 UNK        -0.1927 
     47 C          30.9708   33.1047    4.5712 C.2       7 UNK         0.5013 
     48 O          31.9586   32.9635    5.2934 O.2       7 UNK        -0.5193 
     49 N          30.9872   32.9652    3.2391 N.am      8 UNK        -0.4253 
     50 CA         32.1206   32.4863    2.4518 C.3       8 UNK         0.0242 
     51 CB         32.1933   33.2837    1.1327 C.3       8 UNK        -0.2000 
     52 C          31.9745   30.9680    2.2566 C.2       8 UNK         0.4948 
     53 O          32.3224   30.2098    3.1622 O.2       8 UNK        -0.5275 
     54 N          31.4845   30.5489    1.0782 N.am      9 UNK        -0.4246 
     55 CA         31.0945   29.1851    0.6748 C.3       9 UNK         0.0261 
     56 CB         29.8885   28.7154    1.5151 C.3       9 UNK        -0.1959 
     57 C          32.2009   28.1108    0.6942 C.2       9 UNK         0.5033 
     58 O          31.9105   26.9613    0.3634 O.2       9 UNK        -0.5390 
     59 N          33.4244   28.4752    1.0994 N.am      10 UNK        -0.4215 
     60 CA         34.5037   27.5888    1.5490 C.3       10 UNK         0.0240 
     61 CB         35.0408   26.7026    0.4047 C.3       10 UNK        -0.1982 
     62 C          34.0853   26.7903    2.8016 C.2       10 UNK         0.4970 
     63 O          34.3266   25.5841    2.8735 O.2       10 UNK        -0.4916 
     64 N          33.4371   27.4807    3.7505 N.am      11 UNK        -0.4279 
     65 CA         33.0301   26.9619    5.0629 C.3       11 UNK         0.1003 
     66 C          34.2384   26.4768    5.9131 C.2       11 UNK         0.5709 
     67 N          34.1159   25.3391    6.5835 N.am      11 UNK        -0.7358 
     68 O          35.2715   27.1401    5.9911 O.2       11 UNK        -0.4999 
     69 C69        32.1951   28.0346    5.8125 C.3       12 UNK        -0.0954 
     70 S70        31.1487   27.3583    7.1482 S.3       12 UNK        -0.2268 
     71 C71        29.4915   27.9670    6.6809 C.3       12 UNK         0.0203 
     72 H72        35.9816   21.9991    1.5435 H         1 UNK         0.0888 
     73 H73        35.3926   23.1267    2.7658 H         1 UNK         0.0888 
     74 H74        35.2202   21.3902    3.0162 H         1 UNK         0.0888 
     75 H75        33.5443   24.1176    2.0986 H         1 UNK         0.3017 
     76 H76        31.6225   24.6401    1.2478 H         1 UNK         0.0873 
     77 H77        29.7666   22.8382    0.9537 H         1 UNK         0.0745 
     78 H78        30.9026   21.7088    1.6349 H         1 UNK         0.0745 
     79 H79        28.3199   24.3680    2.1323 H         1 UNK         0.0705 
     80 H80        29.6696   25.4734    2.2115 H         1 UNK         0.0705 
     81 H81        30.2344   26.5986    4.4084 H         1 UNK         0.1334 
     82 H82        26.9265   27.1534    7.0834 H         1 UNK         0.1417 
     83 H83        26.6280   24.3684    3.8383 H         1 UNK         0.1562 
     84 H84        24.8571   26.0415    6.7249 H         1 UNK         0.0748 
     85 H85        25.0614   24.4119    6.1264 H         1 UNK         0.0748 
     86 H86        24.5007   28.0753    5.2171 H         1 UNK         0.0940 
     87 H87        23.2932   28.0388    3.9626 H         1 UNK         0.0940 
     88 H88        26.3122   27.7041    3.5783 H         1 UNK         0.0703 
     89 H89        24.4938   26.5537    1.9590 H         1 UNK         0.3081 
     90 H90        25.5561   25.4780    0.0788 H         1 UNK         0.0719 
     91 H91        24.1330   27.7756   -1.3897 H         1 UNK         0.0809 
     92 H92        23.9456   26.0602   -1.7552 H         1 UNK         0.0809 
     93 H93        23.3875   26.6969   -0.2201 H         1 UNK         0.0809 
     94 H94        26.2980   26.9994   -2.2569 H         1 UNK         0.2990 
     95 H95        28.3397   25.8926   -3.3478 H         1 UNK         0.0690 
     96 H96        29.5508   28.1316   -3.5908 H         1 UNK         0.0788 
     97 H97        29.1457   28.4947   -1.9139 H         1 UNK         0.0788 
     98 H98        27.8750   28.3206   -3.1136 H         1 UNK         0.0788 
     99 H99        30.3505   25.9115   -1.2252 H         1 UNK         0.2993 
    100 H100       32.5275   23.9468   -3.0961 H         1 UNK         0.0949 
    101 H101       34.3878   25.5330   -2.6019 H         1 UNK         0.0767 
    102 H102       33.4612   26.0877   -3.9869 H         1 UNK         0.0767 
    103 H103       33.2378   26.8577   -2.4206 H         1 UNK         0.0767 
    104 H104       32.4301   25.4857   -0.5590 H         1 UNK         0.3013 
    105 H105       27.2831   29.6023    3.8000 H         1 UNK         0.3121 
    106 H106       26.0090   32.1355    3.7792 H         1 UNK         0.0774 
    107 H107       27.2793   33.0852    1.8245 H         1 UNK         0.0815 
    108 H108       27.9180   31.4935    1.4371 H         1 UNK         0.0815 
    109 H109       26.1994   31.8253    1.2641 H         1 UNK         0.0815 
    110 H110       27.8779   33.8152    4.0426 H         1 UNK         0.2987 
    111 H111       29.5700   32.9587    6.1737 H         1 UNK         0.0949 
    112 H112       29.5747   35.5656    4.5542 H         1 UNK         0.0806 
    113 H113       28.6419   35.2576    6.0203 H         1 UNK         0.0806 
    114 H114       30.3942   35.3174    6.0893 H         1 UNK         0.0806 
    115 H115       30.1124   33.0835    2.7501 H         1 UNK         0.3010 
    116 H116       33.0533   32.6536    2.9950 H         1 UNK         0.0829 
    117 H117       32.4042   34.3351    1.3299 H         1 UNK         0.0813 
    118 H118       32.9961   32.9158    0.4918 H         1 UNK         0.0813 
    119 H119       31.2629   33.2419    0.5652 H         1 UNK         0.0813 
    120 H120       31.2914   31.2621    0.3886 H         1 UNK         0.3038 
    121 H121       30.7714   29.2596   -0.3636 H         1 UNK         0.0769 
    122 H122       29.4944   27.7669    1.1478 H         1 UNK         0.0811 
    123 H123       29.0707   29.4329    1.4739 H         1 UNK         0.0811 
    124 H124       30.1535   28.5736    2.5636 H         1 UNK         0.0811 
    125 H125       33.5292   29.4461    1.3600 H         1 UNK         0.3204 
    126 H126       35.3193   28.2410    1.8647 H         1 UNK         0.0748 
    127 H127       35.9593   26.1982    0.7068 H         1 UNK         0.0771 
    128 H128       34.3330   25.9273    0.1200 H         1 UNK         0.0771 
    129 H129       35.2704   27.2924   -0.4826 H         1 UNK         0.0771 
    130 H130       33.2338   28.4621    3.5892 H         1 UNK         0.2980 
    131 H131       32.3937   26.0985    4.8622 H         1 UNK         0.0545 
    132 H132       33.2632   24.8031    6.5440 H         1 UNK         0.3459 
    133 H133       34.8857   25.0170    7.1484 H         1 UNK         0.3459 
    134 H134       32.8383   28.8123    6.2286 H         1 UNK         0.0616 
    135 H135       31.5450   28.5487    5.1035 H         1 UNK         0.0616 
    136 H136       28.9610   28.2040    7.6042 H         1 UNK         0.0634 
    137 H137       29.5718   28.9062    6.1356 H         1 UNK         0.0634 
@<TRIPOS>BOND
     1    1    2 1    
     2    1   72 1    
     3    1   73 1    
     4    1   74 1    
     5    2    3 2    
     6    2    4 am   BACKBONE|DICT|INTERRES
     7    4    5 1    
     8    4   75 1    
     9    5    6 1    
    10    5   35 1    
    11    5   76 1    
    12    6    7 1    
    13    6   77 1    
    14    6   78 1    
    15    7    8 1    
    16    8    9 1    
    17    8   79 1    
    18    8   80 1    
    19    9   10 ar   
    20    9   14 ar   
    21   10   11 ar   
    22   10   81 1    
    23   11   12 ar   
    24   11   71 1    
    25   12   13 ar   
    26   12   82 1    
    27   13   14 ar   
    28   13   15 1    
    29   14   83 1    
    30   15   16 1    
    31   15   84 1    
    32   15   85 1    
    33   16   17 1    
    34   17   18 1    
    35   17   86 1    
    36   17   87 1    
    37   18   19 1    
    38   18   37 1    
    39   18   88 1    
    40   19   20 am   BACKBONE|DICT|INTERRES
    41   19   89 1    
    42   20   21 2    
    43   20   22 1    
    44   22   23 1    
    45   22   24 1    
    46   22   90 1    
    47   23   91 1    
    48   23   92 1    
    49   23   93 1    
    50   24   25 am   BACKBONE|DICT|INTERRES
    51   24   94 1    
    52   25   26 2    
    53   25   27 1    
    54   27   28 1    
    55   27   29 1    
    56   27   95 1    
    57   28   96 1    
    58   28   97 1    
    59   28   98 1    
    60   29   30 am   BACKBONE|DICT|INTERRES
    61   29   99 1    
    62   30   31 2    
    63   30   32 1    
    64   32   33 1    
    65   32   34 1    
    66   32  100 1    
    67   33  101 1    
    68   33  102 1    
    69   33  103 1    
    70   34   35 am   BACKBONE|DICT|INTERRES
    71   34  104 1    
    72   35   36 2    
    73   37   38 2    
    74   37   39 am   BACKBONE|DICT|INTERRES
    75   39   40 1    
    76   39  105 1    
    77   40   41 1    
    78   40   42 1    
    79   40  106 1    
    80   41  107 1    
    81   41  108 1    
    82   41  109 1    
    83   42   43 2    
    84   42   44 am   BACKBONE|DICT|INTERRES
    85   44   45 1    
    86   44  110 1    
    87   45   46 1    
    88   45   47 1    
    89   45  111 1    
    90   46  112 1    
    91   46  113 1    
    92   46  114 1    
    93   47   48 2    
    94   47   49 am   BACKBONE|DICT|INTERRES
    95   49   50 1    
    96   49  115 1    
    97   50   51 1    
    98   50   52 1    
    99   50  116 1    
   100   51  117 1    
   101   51  118 1    
   102   51  119 1    
   103   52   53 2    
   104   52   54 am   BACKBONE|DICT|INTERRES
   105   54   55 1    
   106   54  120 1    
   107   55   56 1    
   108   55   57 1    
   109   55  121 1    
   110   56  122 1    
   111   56  123 1    
   112   56  124 1    
   113   57   58 2    
   114   57   59 am   BACKBONE|DICT|INTERRES
   115   59   60 1    
   116   59  125 1    
   117   60   61 1    
   118   60   62 1    
   119   60  126 1    
   120   61  127 1    
   121   61  128 1    
   122   61  129 1    
   123   62   63 2    
   124   62   64 am   BACKBONE|DICT|INTERRES
   125   64   65 1    
   126   64  130 1    
   127   65   66 1    
   128   65   69 1    
   129   65  131 1    
   130   66   67 am   BACKBONE|DICT|INTERRES
   131   66   68 2    
   132   67  132 1    
   133   67  133 1    
   134   69   70 1    
   135   69  134 1    
   136   69  135 1    
   137   70   71 1    
   138   71  136 1    
   139   71  137 1    
@<TRIPOS>SUBSTRUCTURE
     1 UNK         1 GROUP             0       ****    0 ROOT    
