@<TRIPOS>MOLECULE
3R136
137   139    1
SMALL
USER_CHARGES


@<TRIPOS>ATOM
      1 CA         28.5318   22.6457   -2.2896 C.3       0 UNK        -0.1979 
      2 C          28.2518   23.3748   -0.9857 C.2       0 UNK         0.4864 
      3 O          27.9426   24.5665   -1.0108 O.2       0 UNK        -0.5359 
      4 N          28.3596   22.6770    0.1530 N.am      1 UNK        -0.4318 
      5 CA         28.1036   23.2126    1.4954 C.3       1 UNK         0.0824 
      6 C6         28.5226   22.2070    2.5996 C.3       12 UNK        -0.0944 
      7 S7         29.2805   23.0342    4.0397 S.3       12 UNK        -0.2672 
      8 C8         31.0093   22.4536    3.9516 C.3       12 UNK         0.0333 
      9 C9         31.9016   23.3874    3.1418 C.ar      12 UNK        -0.0807 
     10 C10        32.8915   24.1373    3.7845 C.ar      12 UNK        -0.0894 
     11 C11        33.7275   24.9894    3.0568 C.ar      12 UNK        -0.0804 
     12 C12        33.5717   25.0838    1.6705 C.ar      12 UNK        -0.0824 
     13 C13        32.5654   24.3657    1.0179 C.ar      12 UNK        -0.0762 
     14 C14        31.7511   23.5000    1.7559 C.ar      12 UNK        -0.0782 
     15 C15        32.3212   24.5648   -0.4754 C.3       12 UNK         0.0230 
     16 S16        31.7689   26.2630   -0.8780 S.3       12 UNK        -0.2608 
     17 C17        30.5589   26.5728    0.4484 C.3       12 UNK        -0.0989 
     18 CA         29.4998   27.6506    0.1154 C.3       5 UNK         0.0716 
     19 N          28.6180   27.2409   -0.9712 N.am      5 UNK        -0.4135 
     20 C          27.9405   28.0801   -1.7627 C.2       4 UNK         0.5031 
     21 O          28.0193   29.3071   -1.6857 O.2       4 UNK        -0.5229 
     22 CA         27.0075   27.4485   -2.8027 C.3       4 UNK         0.0329 
     23 CB         27.8082   26.8117   -3.9518 C.3       4 UNK        -0.2001 
     24 N          26.1495   26.4402   -2.1807 N.am      4 UNK        -0.4303 
     25 C          24.8253   26.3447   -2.3502 C.2       3 UNK         0.5044 
     26 O          24.1671   27.0835   -3.0841 O.2       3 UNK        -0.5152 
     27 CA         24.1056   25.2346   -1.5646 C.3       3 UNK         0.0319 
     28 CB         24.2161   23.8916   -2.3043 C.3       3 UNK        -0.2001 
     29 N          24.6050   25.0745   -0.1977 N.am      3 UNK        -0.4354 
     30 C          24.4984   25.9790    0.7848 C.2       2 UNK         0.4964 
     31 O          23.9273   27.0617    0.6533 O.2       2 UNK        -0.5047 
     32 CA         25.1404   25.6382    2.1435 C.3       2 UNK         0.0288 
     33 CB         24.1385   24.9360    3.0812 C.3       2 UNK        -0.2113 
     34 N          26.4108   24.9052    2.0454 N.am      2 UNK        -0.4145 
     35 C          26.6314   23.6483    1.6363 C.2       1 UNK         0.5006 
     36 O          25.7384   22.8594    1.3169 O.2       1 UNK        -0.5103 
     37 C          28.6471   27.9319    1.3618 C.2       5 UNK         0.5055 
     38 O          28.2563   26.9841    2.0491 O.2       5 UNK        -0.5220 
     39 N          28.4127   29.2125    1.6745 N.am      6 UNK        -0.4450 
     40 CA         27.8860   29.6544    2.9703 C.3       6 UNK         0.0367 
     41 CB         27.2703   31.0582    2.8314 C.3       6 UNK        -0.1929 
     42 C          29.0066   29.5943    4.0265 C.2       6 UNK         0.5070 
     43 O          29.5503   30.6256    4.4267 O.2       6 UNK        -0.5237 
     44 N          29.3993   28.3672    4.3808 N.am      7 UNK        -0.4739 
     45 CA         30.5056   28.0609    5.2814 C.3       7 UNK         0.0276 
     46 CB         30.8268   26.5636    5.1594 C.3       7 UNK        -0.1927 
     47 C          30.1736   28.4295    6.7427 C.2       7 UNK         0.5013 
     48 O          29.0146   28.3054    7.1398 O.2       7 UNK        -0.5193 
     49 N          31.1504   28.8380    7.5657 N.am      8 UNK        -0.4253 
     50 CA         32.5615   29.0733    7.2358 C.3       8 UNK         0.0242 
     51 CB         33.3949   28.9284    8.5196 C.3       8 UNK        -0.2000 
     52 C          32.8206   30.4505    6.5938 C.2       8 UNK         0.4948 
     53 O          33.9199   30.6693    6.0873 O.2       8 UNK        -0.5275 
     54 N          31.8296   31.3534    6.6377 N.am      9 UNK        -0.4246 
     55 CA         31.9317   32.7586    6.2300 C.3       9 UNK         0.0261 
     56 CB         30.5898   33.4648    6.4856 C.3       9 UNK        -0.1959 
     57 C          32.3911   32.9787    4.7788 C.2       9 UNK         0.5033 
     58 O          33.2456   33.8353    4.5455 O.2       9 UNK        -0.5390 
     59 N          31.8238   32.2142    3.8363 N.am      10 UNK        -0.4215 
     60 CA         32.1655   32.2960    2.4141 C.3       10 UNK         0.0240 
     61 CB         31.0787   31.6089    1.5733 C.3       10 UNK        -0.1982 
     62 C          33.5401   31.6972    2.0812 C.2       10 UNK         0.4970 
     63 O          34.2556   32.2680    1.2566 O.2       10 UNK        -0.4916 
     64 N          33.8607   30.5459    2.6843 N.am      11 UNK        -0.4279 
     65 CA         35.0599   29.7597    2.3622 C.3       11 UNK         0.1003 
     66 C          36.3237   30.1230    3.1908 C.2       11 UNK         0.5709 
     67 N          36.2046   30.7672    4.3445 N.am      11 UNK        -0.7358 
     68 O          37.4389   29.8351    2.7621 O.2       11 UNK        -0.4999 
     69 C69        34.7539   28.2410    2.3507 C.3       12 UNK        -0.0954 
     70 S70        34.2725   27.5501    3.9707 S.3       12 UNK        -0.2268 
     71 C71        34.7870   25.8133    3.7756 C.3       12 UNK         0.0203 
     72 H72        28.7839   21.5982   -2.1260 H         1 UNK         0.0888 
     73 H73        27.6572   22.6886   -2.9378 H         1 UNK         0.0888 
     74 H74        29.3642   23.1194   -2.8092 H         1 UNK         0.0888 
     75 H75        28.5654   21.6896    0.1060 H         1 UNK         0.3017 
     76 H76        28.7243   24.1042    1.5875 H         1 UNK         0.0873 
     77 H77        29.2344   21.4813    2.2049 H         1 UNK         0.0745 
     78 H78        27.6789   21.6057    2.9453 H         1 UNK         0.0745 
     79 H79        31.0595   21.4441    3.5421 H         1 UNK         0.0705 
     80 H80        31.3840   22.3730    4.9732 H         1 UNK         0.0705 
     81 H81        33.0085   24.0634    4.8571 H         1 UNK         0.1334 
     82 H82        34.2064   25.7463    1.0994 H         1 UNK         0.1417 
     83 H83        30.9837   22.9296    1.2543 H         1 UNK         0.1562 
     84 H84        33.2378   24.3478   -1.0254 H         1 UNK         0.0748 
     85 H85        31.5707   23.8614   -0.8395 H         1 UNK         0.0748 
     86 H86        31.1220   26.8546    1.3414 H         1 UNK         0.0940 
     87 H87        30.0684   25.6298    0.6849 H         1 UNK         0.0940 
     88 H88        30.0264   28.5649   -0.1678 H         1 UNK         0.0703 
     89 H89        28.4693   26.2369   -1.0646 H         1 UNK         0.3081 
     90 H90        26.3994   28.2560   -3.2163 H         1 UNK         0.0719 
     91 H91        28.4209   25.9778   -3.6063 H         1 UNK         0.0809 
     92 H92        27.1458   26.4370   -4.7321 H         1 UNK         0.0809 
     93 H93        28.4755   27.5401   -4.4143 H         1 UNK         0.0809 
     94 H94        26.6131   25.7646   -1.5780 H         1 UNK         0.2990 
     95 H95        23.0492   25.5045   -1.5023 H         1 UNK         0.0690 
     96 H96        23.6378   23.1146   -1.8039 H         1 UNK         0.0788 
     97 H97        25.2499   23.5504   -2.3694 H         1 UNK         0.0788 
     98 H98        23.8342   23.9741   -3.3228 H         1 UNK         0.0788 
     99 H99        25.0548   24.1942    0.0318 H         1 UNK         0.2993 
    100 H100       25.4005   26.5935    2.6030 H         1 UNK         0.0949 
    101 H101       24.5814   24.7388    4.0575 H         1 UNK         0.0767 
    102 H102       23.2589   25.5602    3.2437 H         1 UNK         0.0767 
    103 H103       23.7883   23.9878    2.6728 H         1 UNK         0.0767 
    104 H104       27.2248   25.5021    2.1916 H         1 UNK         0.3013 
    105 H105       28.7349   29.9339    1.0450 H         1 UNK         0.3121 
    106 H106       27.0906   28.9760    3.2875 H         1 UNK         0.0774 
    107 H107       26.8598   31.3949    3.7842 H         1 UNK         0.0815 
    108 H108       28.0008   31.8017    2.5158 H         1 UNK         0.0815 
    109 H109       26.4546   31.0622    2.1084 H         1 UNK         0.0815 
    110 H110       28.9189   27.5796    3.9615 H         1 UNK         0.2987 
    111 H111       31.3615   28.6329    4.9242 H         1 UNK         0.0949 
    112 H112       29.9933   25.9415    5.4883 H         1 UNK         0.0806 
    113 H113       31.0561   26.2939    4.1282 H         1 UNK         0.0806 
    114 H114       31.6936   26.2950    5.7640 H         1 UNK         0.0806 
    115 H115       30.8949   29.0360    8.5226 H         1 UNK         0.3010 
    116 H116       32.9105   28.3085    6.5412 H         1 UNK         0.0829 
    117 H117       33.2738   27.9396    8.9625 H         1 UNK         0.0813 
    118 H118       34.4582   29.0582    8.3116 H         1 UNK         0.0813 
    119 H119       33.1176   29.6701    9.2699 H         1 UNK         0.0813 
    120 H120       30.9483   31.0687    7.0399 H         1 UNK         0.3038 
    121 H121       32.6817   33.2200    6.8757 H         1 UNK         0.0769 
    122 H122       29.7794   33.0126    5.9122 H         1 UNK         0.0811 
    123 H123       30.6417   34.5171    6.2021 H         1 UNK         0.0811 
    124 H124       30.3159   33.4290    7.5400 H         1 UNK         0.0811 
    125 H125       31.0727   31.5792    4.1075 H         1 UNK         0.3204 
    126 H126       32.1888   33.3507    2.1310 H         1 UNK         0.0748 
    127 H127       31.3156   31.6599    0.5095 H         1 UNK         0.0771 
    128 H128       30.9746   30.5557    1.8346 H         1 UNK         0.0771 
    129 H129       30.1145   32.0951    1.7101 H         1 UNK         0.0771 
    130 H130       33.2537   30.1652    3.3936 H         1 UNK         0.2980 
    131 H131       35.3354   29.9959    1.3323 H         1 UNK         0.0545 
    132 H132       35.2936   30.9078    4.7716 H         1 UNK         0.3459 
    133 H133       37.0359   31.0046    4.8601 H         1 UNK         0.3459 
    134 H134       35.6192   27.6976    1.9678 H         1 UNK         0.0616 
    135 H135       33.9429   28.0426    1.6483 H         1 UNK         0.0616 
    136 H136       35.7368   25.7543    3.2428 H         1 UNK         0.0634 
    137 H137       34.9741   25.4000    4.7678 H         1 UNK         0.0634 
@<TRIPOS>BOND
     1    1    2 1    
     2    1   72 1    
     3    1   73 1    
     4    1   74 1    
     5    2    3 2    
     6    2    4 am   BACKBONE|DICT|INTERRES
     7    4    5 1    
     8    4   75 1    
     9    5    6 1    
    10    5   35 1    
    11    5   76 1    
    12    6    7 1    
    13    6   77 1    
    14    6   78 1    
    15    7    8 1    
    16    8    9 1    
    17    8   79 1    
    18    8   80 1    
    19    9   10 ar   
    20    9   14 ar   
    21   10   11 ar   
    22   10   81 1    
    23   11   12 ar   
    24   11   71 1    
    25   12   13 ar   
    26   12   82 1    
    27   13   14 ar   
    28   13   15 1    
    29   14   83 1    
    30   15   16 1    
    31   15   84 1    
    32   15   85 1    
    33   16   17 1    
    34   17   18 1    
    35   17   86 1    
    36   17   87 1    
    37   18   19 1    
    38   18   37 1    
    39   18   88 1    
    40   19   20 am   BACKBONE|DICT|INTERRES
    41   19   89 1    
    42   20   21 2    
    43   20   22 1    
    44   22   23 1    
    45   22   24 1    
    46   22   90 1    
    47   23   91 1    
    48   23   92 1    
    49   23   93 1    
    50   24   25 am   BACKBONE|DICT|INTERRES
    51   24   94 1    
    52   25   26 2    
    53   25   27 1    
    54   27   28 1    
    55   27   29 1    
    56   27   95 1    
    57   28   96 1    
    58   28   97 1    
    59   28   98 1    
    60   29   30 am   BACKBONE|DICT|INTERRES
    61   29   99 1    
    62   30   31 2    
    63   30   32 1    
    64   32   33 1    
    65   32   34 1    
    66   32  100 1    
    67   33  101 1    
    68   33  102 1    
    69   33  103 1    
    70   34   35 am   BACKBONE|DICT|INTERRES
    71   34  104 1    
    72   35   36 2    
    73   37   38 2    
    74   37   39 am   BACKBONE|DICT|INTERRES
    75   39   40 1    
    76   39  105 1    
    77   40   41 1    
    78   40   42 1    
    79   40  106 1    
    80   41  107 1    
    81   41  108 1    
    82   41  109 1    
    83   42   43 2    
    84   42   44 am   BACKBONE|DICT|INTERRES
    85   44   45 1    
    86   44  110 1    
    87   45   46 1    
    88   45   47 1    
    89   45  111 1    
    90   46  112 1    
    91   46  113 1    
    92   46  114 1    
    93   47   48 2    
    94   47   49 am   BACKBONE|DICT|INTERRES
    95   49   50 1    
    96   49  115 1    
    97   50   51 1    
    98   50   52 1    
    99   50  116 1    
   100   51  117 1    
   101   51  118 1    
   102   51  119 1    
   103   52   53 2    
   104   52   54 am   BACKBONE|DICT|INTERRES
   105   54   55 1    
   106   54  120 1    
   107   55   56 1    
   108   55   57 1    
   109   55  121 1    
   110   56  122 1    
   111   56  123 1    
   112   56  124 1    
   113   57   58 2    
   114   57   59 am   BACKBONE|DICT|INTERRES
   115   59   60 1    
   116   59  125 1    
   117   60   61 1    
   118   60   62 1    
   119   60  126 1    
   120   61  127 1    
   121   61  128 1    
   122   61  129 1    
   123   62   63 2    
   124   62   64 am   BACKBONE|DICT|INTERRES
   125   64   65 1    
   126   64  130 1    
   127   65   66 1    
   128   65   69 1    
   129   65  131 1    
   130   66   67 am   BACKBONE|DICT|INTERRES
   131   66   68 2    
   132   67  132 1    
   133   67  133 1    
   134   69   70 1    
   135   69  134 1    
   136   69  135 1    
   137   70   71 1    
   138   71  136 1    
   139   71  137 1    
@<TRIPOS>SUBSTRUCTURE
     1 UNK         1 GROUP             0       ****    0 ROOT    
