@<TRIPOS>MOLECULE
3R136
137   139    1
SMALL
USER_CHARGES


@<TRIPOS>ATOM
      1 CA         27.5318   18.4108   -4.0260 C.3       0 UNK        -0.1979 
      2 C          28.4263   19.1312   -3.0280 C.2       0 UNK         0.4864 
      3 O          29.6504   19.0374   -3.1272 O.2       0 UNK        -0.5359 
      4 N          27.8243   19.8473   -2.0673 N.am      1 UNK        -0.4318 
      5 CA         28.5232   20.6215   -1.0320 C.3       1 UNK         0.0824 
      6 C6         27.5637   20.9823    0.1323 C.3       12 UNK        -0.0944 
      7 S7         28.4228   21.1615    1.7305 S.3       12 UNK        -0.2672 
      8 C8         28.3238   22.9607    1.9440 C.3       12 UNK         0.0333 
      9 C9         29.1638   23.4333    3.1179 C.ar      12 UNK        -0.0807 
     10 C10        30.4962   23.7989    2.9117 C.ar      12 UNK        -0.0894 
     11 C11        31.2727   24.2723    3.9714 C.ar      12 UNK        -0.0804 
     12 C12        30.7170   24.3504    5.2507 C.ar      12 UNK        -0.0824 
     13 C13        29.3830   23.9916    5.4710 C.ar      12 UNK        -0.0762 
     14 C14        28.6098   23.5328    4.3987 C.ar      12 UNK        -0.0782 
     15 C15        28.7819   24.0896    6.8677 C.3       12 UNK         0.0230 
     16 S16        27.9195   25.6734    7.1478 S.3       12 UNK        -0.2608 
     17 C17        29.3118   26.8626    7.2295 C.3       12 UNK        -0.0989 
     18 CA         29.3404   27.9144    6.0826 C.3       5 UNK         0.0716 
     19 N          28.9872   27.3334    4.7835 N.am      5 UNK        -0.4135 
     20 C          29.3852   27.7743    3.5867 C.2       4 UNK         0.5031 
     21 O          30.2290   28.6605    3.4249 O.2       4 UNK        -0.5229 
     22 CA         28.6152   27.2270    2.3841 C.3       4 UNK         0.0329 
     23 CB         27.5045   28.2237    1.9943 C.3       4 UNK        -0.2001 
     24 N          29.5238   27.0072    1.2626 N.am      4 UNK        -0.4303 
     25 C          29.2296   26.2698    0.1845 C.2       3 UNK         0.5044 
     26 O          28.1348   25.7239    0.0248 O.2       3 UNK        -0.5152 
     27 CA         30.3189   26.1252   -0.8988 C.3       3 UNK         0.0319 
     28 CB         31.7452   26.0239   -0.3296 C.3       3 UNK        -0.2001 
     29 N          30.0739   24.9437   -1.7269 N.am      3 UNK        -0.4354 
     30 C          29.3398   24.9075   -2.8428 C.2       2 UNK         0.4964 
     31 O          28.8148   25.8992   -3.3516 O.2       2 UNK        -0.5047 
     32 CA         29.1757   23.5386   -3.5298 C.3       2 UNK         0.0288 
     33 CB         30.4726   23.1228   -4.2528 C.3       2 UNK        -0.2113 
     34 N          28.6731   22.4500   -2.6755 N.am      2 UNK        -0.4145 
     35 C          29.2462   21.8624   -1.6108 C.2       1 UNK         0.5006 
     36 O          30.3094   22.2331   -1.1087 O.2       1 UNK        -0.5103 
     37 C          28.4784   29.1711    6.3561 C.2       5 UNK         0.5055 
     38 O          27.8119   29.2725    7.3877 O.2       5 UNK        -0.5220 
     39 N          28.4991   30.1030    5.4000 N.am      6 UNK        -0.4450 
     40 CA         27.7810   31.3693    5.3681 C.3       6 UNK         0.0367 
     41 CB         26.3353   31.1396    4.8911 C.3       6 UNK        -0.1929 
     42 C          28.5393   32.2933    4.4099 C.2       6 UNK         0.5070 
     43 O          29.3729   31.8115    3.6372 O.2       6 UNK        -0.5237 
     44 N          28.2216   33.5937    4.4494 N.am      7 UNK        -0.4739 
     45 CA         28.9049   34.6918    3.7435 C.3       7 UNK         0.0276 
     46 CB         28.1876   36.0112    4.0755 C.3       7 UNK        -0.1927 
     47 C          29.0742   34.5463    2.2156 C.2       7 UNK         0.5013 
     48 O          29.8811   35.2724    1.6339 O.2       7 UNK        -0.5193 
     49 N          28.3421   33.6111    1.5962 N.am      8 UNK        -0.4253 
     50 CA         28.4976   33.1974    0.2006 C.3       8 UNK         0.0242 
     51 CB         27.3420   32.2538   -0.1716 C.3       8 UNK        -0.2000 
     52 C          29.8540   32.5297   -0.1094 C.2       8 UNK         0.4948 
     53 O          30.2731   32.5648   -1.2675 O.2       8 UNK        -0.5275 
     54 N          30.5126   31.9405    0.9005 N.am      9 UNK        -0.4246 
     55 CA         31.8295   31.3059    0.7639 C.3       9 UNK         0.0261 
     56 CB         31.6729   29.8436    0.3160 C.3       9 UNK        -0.1959 
     57 C          32.6809   31.4007    2.0394 C.2       9 UNK         0.5033 
     58 O          33.9002   31.5335    1.9270 O.2       9 UNK        -0.5390 
     59 N          32.0397   31.3442    3.2160 N.am      10 UNK        -0.4215 
     60 CA         32.6128   31.4720    4.5608 C.3       10 UNK         0.0240 
     61 CB         33.1054   32.9148    4.8021 C.3       10 UNK        -0.1982 
     62 C          33.6730   30.4049    4.9009 C.2       10 UNK         0.4970 
     63 O          34.6305   30.7023    5.6177 O.2       10 UNK        -0.4916 
     64 N          33.4784   29.1776    4.4015 N.am      11 UNK        -0.4279 
     65 CA         34.3569   28.0218    4.6583 C.3       11 UNK         0.1003 
     66 C          34.1378   27.3242    6.0346 C.2       11 UNK         0.5709 
     67 N          33.1787   27.7428    6.8523 N.am      11 UNK        -0.7358 
     68 O          34.8655   26.3947    6.3753 O.2       11 UNK        -0.4999 
     69 C69        34.3540   27.0208    3.4716 C.3       12 UNK        -0.0954 
     70 S70        32.6903   26.4183    3.0461 S.3       12 UNK        -0.2268 
     71 C71        32.6987   24.7359    3.7298 C.3       12 UNK         0.0203 
     72 H72        27.7216   17.3382   -3.9934 H         1 UNK         0.0888 
     73 H73        26.4743   18.5739   -3.8192 H         1 UNK         0.0888 
     74 H74        27.7379   18.7629   -5.0364 H         1 UNK         0.0888 
     75 H75        26.8146   19.8706   -2.0310 H         1 UNK         0.3017 
     76 H76        29.3021   19.9656   -0.6356 H         1 UNK         0.0873 
     77 H77        26.9724   21.8721   -0.0940 H         1 UNK         0.0745 
     78 H78        26.8373   20.1807    0.2769 H         1 UNK         0.0745 
     79 H79        27.2833   23.2629    2.0723 H         1 UNK         0.0705 
     80 H80        28.6757   23.4342    1.0285 H         1 UNK         0.0705 
     81 H81        30.9231   23.7308    1.9210 H         1 UNK         0.1334 
     82 H82        31.3248   24.7063    6.0705 H         1 UNK         0.1417 
     83 H83        27.5775   23.2527    4.5609 H         1 UNK         0.1562 
     84 H84        29.5535   23.9545    7.6273 H         1 UNK         0.0748 
     85 H85        28.0711   23.2752    7.0159 H         1 UNK         0.0748 
     86 H86        30.2498   26.3105    7.2216 H         1 UNK         0.0940 
     87 H87        29.2993   27.3440    8.2093 H         1 UNK         0.0940 
     88 H88        30.3682   28.2769    6.0177 H         1 UNK         0.0703 
     89 H89        28.2860   26.6078    4.8302 H         1 UNK         0.3081 
     90 H90        28.1659   26.2705    2.6602 H         1 UNK         0.0719 
     91 H91        26.8342   28.4113    2.8341 H         1 UNK         0.0809 
     92 H92        27.9207   29.1844    1.6880 H         1 UNK         0.0809 
     93 H93        26.8919   27.8479    1.1751 H         1 UNK         0.0809 
     94 H94        30.4475   27.4022    1.3793 H         1 UNK         0.2990 
     95 H95        30.2696   27.0201   -1.5225 H         1 UNK         0.0690 
     96 H96        32.4750   25.8747   -1.1257 H         1 UNK         0.0788 
     97 H97        31.8458   25.1921    0.3670 H         1 UNK         0.0788 
     98 H98        32.0371   26.9346    0.1912 H         1 UNK         0.0788 
     99 H99        30.3970   24.0497   -1.3639 H         1 UNK         0.2993 
    100 H100       28.4128   23.6758   -4.2982 H         1 UNK         0.0949 
    101 H101       31.2935   22.9517   -3.5557 H         1 UNK         0.0767 
    102 H102       30.3281   22.2081   -4.8282 H         1 UNK         0.0767 
    103 H103       30.7957   23.8972   -4.9499 H         1 UNK         0.0767 
    104 H104       27.7854   22.0678   -2.9700 H         1 UNK         0.3013 
    105 H105       29.1115   29.9640    4.5990 H         1 UNK         0.3121 
    106 H106       27.7849   31.8147    6.3651 H         1 UNK         0.0774 
    107 H107       26.3054   30.7187    3.8853 H         1 UNK         0.0815 
    108 H108       25.8025   30.4574    5.5536 H         1 UNK         0.0815 
    109 H109       25.7719   32.0732    4.8723 H         1 UNK         0.0815 
    110 H110       27.4974   33.8783    5.0940 H         1 UNK         0.2987 
    111 H111       29.9156   34.7448    4.1536 H         1 UNK         0.0949 
    112 H112       28.1819   36.2031    5.1486 H         1 UNK         0.0806 
    113 H113       28.6845   36.8598    3.6027 H         1 UNK         0.0806 
    114 H114       27.1537   36.0049    3.7282 H         1 UNK         0.0806 
    115 H115       27.7194   33.0591    2.1673 H         1 UNK         0.3010 
    116 H116       28.4260   34.0922   -0.4215 H         1 UNK         0.0829 
    117 H117       27.3488   31.3480    0.4359 H         1 UNK         0.0813 
    118 H118       27.4107   31.9456   -1.2159 H         1 UNK         0.0813 
    119 H119       26.3744   32.7392   -0.0424 H         1 UNK         0.0813 
    120 H120       30.0994   31.9693    1.8280 H         1 UNK         0.3038 
    121 H121       32.3910   31.8362   -0.0087 H         1 UNK         0.0769 
    122 H122       31.1860   29.7734   -0.6567 H         1 UNK         0.0811 
    123 H123       31.0795   29.2779    1.0307 H         1 UNK         0.0811 
    124 H124       32.6443   29.3546    0.2308 H         1 UNK         0.0811 
    125 H125       31.0287   31.2255    3.2152 H         1 UNK         0.3204 
    126 H126       31.7861   31.2936    5.2500 H         1 UNK         0.0748 
    127 H127       33.9668   33.1565    4.1786 H         1 UNK         0.0771 
    128 H128       32.3212   33.6407    4.5866 H         1 UNK         0.0771 
    129 H129       33.4029   33.0611    5.8411 H         1 UNK         0.0771 
    130 H130       32.6518   28.9923    3.8475 H         1 UNK         0.2980 
    131 H131       35.3772   28.4060    4.7136 H         1 UNK         0.0545 
    132 H132       32.6061   28.5296    6.6011 H         1 UNK         0.3459 
    133 H133       33.0665   27.2934    7.7467 H         1 UNK         0.3459 
    134 H134       35.0208   26.1776    3.6604 H         1 UNK         0.0616 
    135 H135       34.7545   27.5153    2.5855 H         1 UNK         0.0616 
    136 H136       33.2064   24.0635    3.0369 H         1 UNK         0.0634 
    137 H137       33.2655   24.7138    4.6615 H         1 UNK         0.0634 
@<TRIPOS>BOND
     1    1    2 1    
     2    1   72 1    
     3    1   73 1    
     4    1   74 1    
     5    2    3 2    
     6    2    4 am   BACKBONE|DICT|INTERRES
     7    4    5 1    
     8    4   75 1    
     9    5    6 1    
    10    5   35 1    
    11    5   76 1    
    12    6    7 1    
    13    6   77 1    
    14    6   78 1    
    15    7    8 1    
    16    8    9 1    
    17    8   79 1    
    18    8   80 1    
    19    9   10 ar   
    20    9   14 ar   
    21   10   11 ar   
    22   10   81 1    
    23   11   12 ar   
    24   11   71 1    
    25   12   13 ar   
    26   12   82 1    
    27   13   14 ar   
    28   13   15 1    
    29   14   83 1    
    30   15   16 1    
    31   15   84 1    
    32   15   85 1    
    33   16   17 1    
    34   17   18 1    
    35   17   86 1    
    36   17   87 1    
    37   18   19 1    
    38   18   37 1    
    39   18   88 1    
    40   19   20 am   BACKBONE|DICT|INTERRES
    41   19   89 1    
    42   20   21 2    
    43   20   22 1    
    44   22   23 1    
    45   22   24 1    
    46   22   90 1    
    47   23   91 1    
    48   23   92 1    
    49   23   93 1    
    50   24   25 am   BACKBONE|DICT|INTERRES
    51   24   94 1    
    52   25   26 2    
    53   25   27 1    
    54   27   28 1    
    55   27   29 1    
    56   27   95 1    
    57   28   96 1    
    58   28   97 1    
    59   28   98 1    
    60   29   30 am   BACKBONE|DICT|INTERRES
    61   29   99 1    
    62   30   31 2    
    63   30   32 1    
    64   32   33 1    
    65   32   34 1    
    66   32  100 1    
    67   33  101 1    
    68   33  102 1    
    69   33  103 1    
    70   34   35 am   BACKBONE|DICT|INTERRES
    71   34  104 1    
    72   35   36 2    
    73   37   38 2    
    74   37   39 am   BACKBONE|DICT|INTERRES
    75   39   40 1    
    76   39  105 1    
    77   40   41 1    
    78   40   42 1    
    79   40  106 1    
    80   41  107 1    
    81   41  108 1    
    82   41  109 1    
    83   42   43 2    
    84   42   44 am   BACKBONE|DICT|INTERRES
    85   44   45 1    
    86   44  110 1    
    87   45   46 1    
    88   45   47 1    
    89   45  111 1    
    90   46  112 1    
    91   46  113 1    
    92   46  114 1    
    93   47   48 2    
    94   47   49 am   BACKBONE|DICT|INTERRES
    95   49   50 1    
    96   49  115 1    
    97   50   51 1    
    98   50   52 1    
    99   50  116 1    
   100   51  117 1    
   101   51  118 1    
   102   51  119 1    
   103   52   53 2    
   104   52   54 am   BACKBONE|DICT|INTERRES
   105   54   55 1    
   106   54  120 1    
   107   55   56 1    
   108   55   57 1    
   109   55  121 1    
   110   56  122 1    
   111   56  123 1    
   112   56  124 1    
   113   57   58 2    
   114   57   59 am   BACKBONE|DICT|INTERRES
   115   59   60 1    
   116   59  125 1    
   117   60   61 1    
   118   60   62 1    
   119   60  126 1    
   120   61  127 1    
   121   61  128 1    
   122   61  129 1    
   123   62   63 2    
   124   62   64 am   BACKBONE|DICT|INTERRES
   125   64   65 1    
   126   64  130 1    
   127   65   66 1    
   128   65   69 1    
   129   65  131 1    
   130   66   67 am   BACKBONE|DICT|INTERRES
   131   66   68 2    
   132   67  132 1    
   133   67  133 1    
   134   69   70 1    
   135   69  134 1    
   136   69  135 1    
   137   70   71 1    
   138   71  136 1    
   139   71  137 1    
@<TRIPOS>SUBSTRUCTURE
     1 UNK         1 GROUP             0       ****    0 ROOT    
