@<TRIPOS>MOLECULE
3R136
137   139    1
SMALL
USER_CHARGES


@<TRIPOS>ATOM
      1 CA         24.2814   27.0803    3.3098 C.3       0 UNK        -0.1979 
      2 C          25.4740   26.4157    2.6395 C.2       0 UNK         0.4864 
      3 O          26.2756   27.1040    2.0029 O.2       0 UNK        -0.5359 
      4 N          25.5798   25.0893    2.8047 N.am      1 UNK        -0.4318 
      5 CA         26.5013   24.1529    2.1415 C.3       1 UNK         0.0824 
      6 C6         28.0043   24.5459    2.2016 C.3       12 UNK        -0.0944 
      7 S7         28.6457   24.6166    3.9105 S.3       12 UNK        -0.2672 
      8 C8         30.1539   23.5867    3.8111 C.3       12 UNK         0.0333 
      9 C9         31.3902   24.4003    3.4390 C.ar      12 UNK        -0.0807 
     10 C10        32.4656   24.5032    4.3299 C.ar      12 UNK        -0.0894 
     11 C11        33.5881   25.2744    4.0070 C.ar      12 UNK        -0.0804 
     12 C12        33.6226   25.9572    2.7883 C.ar      12 UNK        -0.0824 
     13 C13        32.5592   25.8617    1.8899 C.ar      12 UNK        -0.0762 
     14 C14        31.4625   25.0562    2.2068 C.ar      12 UNK        -0.0782 
     15 C15        32.5856   26.6561    0.5937 C.3       12 UNK         0.0230 
     16 S16        31.7592   28.2656    0.8017 S.3       12 UNK        -0.2608 
     17 C17        30.0161   27.7507    0.9385 C.3       12 UNK        -0.0989 
     18 CA         29.0154   28.8476    0.4918 C.3       5 UNK         0.0716 
     19 N          27.8352   28.2322   -0.1208 N.am      5 UNK        -0.4135 
     20 C          27.3094   28.5583   -1.3061 C.2       4 UNK         0.5031 
     21 O          27.6599   29.5320   -1.9753 O.2       4 UNK        -0.5229 
     22 CA         26.2506   27.5771   -1.8394 C.3       4 UNK         0.0329 
     23 CB         25.4977   28.0998   -3.0816 C.3       4 UNK        -0.2001 
     24 N          26.8564   26.2610   -2.0891 N.am      4 UNK        -0.4303 
     25 C          27.8516   25.9681   -2.9471 C.2       3 UNK         0.5044 
     26 O          28.3138   26.7687   -3.7605 O.2       3 UNK        -0.5152 
     27 CA         28.4795   24.5591   -2.8841 C.3       3 UNK         0.0319 
     28 CB         29.9450   24.6469   -2.4214 C.3       3 UNK        -0.2001 
     29 N          27.7744   23.6308   -2.0007 N.am      3 UNK        -0.4354 
     30 C          26.6229   23.0091   -2.2866 C.2       2 UNK         0.4964 
     31 O          26.0542   23.0829   -3.3759 O.2       2 UNK        -0.5047 
     32 CA         25.9820   22.1911   -1.1485 C.3       2 UNK         0.0288 
     33 CB         26.3497   20.7043   -1.2833 C.3       2 UNK        -0.2113 
     34 N          26.3322   22.6564    0.2029 N.am      2 UNK        -0.4145 
     35 C          26.0542   23.8754    0.6907 C.2       1 UNK         0.5006 
     36 O          25.5031   24.7544    0.0240 O.2       1 UNK        -0.5103 
     37 C          28.6277   29.7892    1.6510 C.2       5 UNK         0.5055 
     38 O          29.4772   30.0922    2.4905 O.2       5 UNK        -0.5220 
     39 N          27.3513   30.2049    1.7035 N.am      6 UNK        -0.4450 
     40 CA         26.7369   31.0681    2.7207 C.3       6 UNK         0.0367 
     41 CB         27.2348   32.5204    2.5683 C.3       6 UNK        -0.1929 
     42 C          26.8956   30.5183    4.1530 C.2       6 UNK         0.5070 
     43 O          27.1501   31.2851    5.0826 O.2       6 UNK        -0.5237 
     44 N          26.7438   29.1912    4.2846 N.am      7 UNK        -0.4739 
     45 CA         26.9195   28.3915    5.5022 C.3       7 UNK         0.0276 
     46 CB         25.8946   28.7836    6.5891 C.3       7 UNK        -0.1927 
     47 C          28.3774   28.4174    5.9919 C.2       7 UNK         0.5013 
     48 O          28.6432   28.8112    7.1293 O.2       7 UNK        -0.5193 
     49 N          29.2819   27.9758    5.1046 N.am      8 UNK        -0.4253 
     50 CA         30.7247   27.8113    5.3144 C.3       8 UNK         0.0242 
     51 CB         30.9862   26.7465    6.4037 C.3       8 UNK        -0.2000 
     52 C          31.4448   29.1452    5.5923 C.2       8 UNK         0.4948 
     53 O          32.2419   29.2335    6.5283 O.2       8 UNK        -0.5275 
     54 N          31.1434   30.1736    4.7877 N.am      9 UNK        -0.4246 
     55 CA         31.7335   31.5065    4.9253 C.3       9 UNK         0.0261 
     56 CB         30.7824   32.5518    4.3231 C.3       9 UNK        -0.1959 
     57 C          33.1230   31.6191    4.2774 C.2       9 UNK         0.5033 
     58 O          33.9396   32.4055    4.7594 O.2       9 UNK        -0.5390 
     59 N          33.3665   30.8619    3.1987 N.am      10 UNK        -0.4215 
     60 CA         34.5764   30.9476    2.3764 C.3       10 UNK         0.0240 
     61 CB         34.1801   31.3101    0.9319 C.3       10 UNK        -0.1982 
     62 C          35.4069   29.6573    2.4656 C.2       10 UNK         0.4970 
     63 O          35.7634   29.0799    1.4366 O.2       10 UNK        -0.4916 
     64 N          35.7114   29.2279    3.6958 N.am      11 UNK        -0.4279 
     65 CA         36.6549   28.1334    3.9749 C.3       11 UNK         0.1003 
     66 C          38.1283   28.5433    3.7018 C.2       11 UNK         0.5709 
     67 N          38.9810   27.5924    3.3446 N.am      11 UNK        -0.7358 
     68 O          38.5133   29.7029    3.8451 O.2       11 UNK        -0.4999 
     69 C69        36.4979   27.5744    5.4126 C.3       12 UNK        -0.0954 
     70 S70        34.8066   27.0058    5.7818 S.3       12 UNK        -0.2268 
     71 C71        34.7630   25.3779    4.9691 C.3       12 UNK         0.0203 
     72 H72        24.2593   28.1485    3.0960 H         1 UNK         0.0888 
     73 H73        23.3506   26.6475    2.9439 H         1 UNK         0.0888 
     74 H74        24.3224   26.9486    4.3904 H         1 UNK         0.0888 
     75 H75        24.8699   24.6335    3.3608 H         1 UNK         0.3017 
     76 H76        26.3867   23.2130    2.6844 H         1 UNK         0.0873 
     77 H77        28.5948   23.8205    1.6406 H         1 UNK         0.0745 
     78 H78        28.1859   25.5047    1.7181 H         1 UNK         0.0745 
     79 H79        30.0183   22.7706    3.1007 H         1 UNK         0.0705 
     80 H80        30.2971   23.1139    4.7838 H         1 UNK         0.0705 
     81 H81        32.4263   23.9908    5.2814 H         1 UNK         0.1334 
     82 H82        34.4705   26.5779    2.5402 H         1 UNK         0.1417 
     83 H83        30.6469   24.9705    1.5061 H         1 UNK         0.1562 
     84 H84        32.1170   26.0927   -0.2144 H         1 UNK         0.0748 
     85 H85        33.6170   26.8316    0.2833 H         1 UNK         0.0748 
     86 H86        29.8163   27.4066    1.9550 H         1 UNK         0.0940 
     87 H87        29.8972   26.8747    0.3001 H         1 UNK         0.0940 
     88 H88        29.5074   29.4763   -0.2534 H         1 UNK         0.0703 
     89 H89        27.3803   27.5104    0.4336 H         1 UNK         0.3081 
     90 H90        25.5160   27.4364   -1.0443 H         1 UNK         0.0719 
     91 H91        24.7468   27.3849   -3.4177 H         1 UNK         0.0809 
     92 H92        26.1686   28.2984   -3.9176 H         1 UNK         0.0809 
     93 H93        24.9804   29.0328   -2.8554 H         1 UNK         0.0809 
     94 H94        26.5287   25.5288   -1.4663 H         1 UNK         0.2990 
     95 H95        28.4645   24.1528   -3.8978 H         1 UNK         0.0690 
     96 H96        30.4267   23.6690   -2.4398 H         1 UNK         0.0788 
     97 H97        30.0259   25.0430   -1.4089 H         1 UNK         0.0788 
     98 H98        30.5250   25.3014   -3.0738 H         1 UNK         0.0788 
     99 H99        28.1747   23.4864   -1.0861 H         1 UNK         0.2993 
    100 H100       24.8995   22.2878   -1.2580 H         1 UNK         0.0949 
    101 H101       27.4201   20.5390   -1.1537 H         1 UNK         0.0767 
    102 H102       25.8231   20.0961   -0.5475 H         1 UNK         0.0767 
    103 H103       26.0780   20.3225   -2.2687 H         1 UNK         0.0767 
    104 H104       26.7876   21.9825    0.8024 H         1 UNK         0.3013 
    105 H105       26.7290   29.8653    0.9841 H         1 UNK         0.3121 
    106 H106       25.6647   31.0672    2.5189 H         1 UNK         0.0774 
    107 H107       26.7225   33.1873    3.2628 H         1 UNK         0.0815 
    108 H108       28.3026   32.6032    2.7647 H         1 UNK         0.0815 
    109 H109       27.0503   32.8984    1.5630 H         1 UNK         0.0815 
    110 H110       26.5757   28.6607    3.4363 H         1 UNK         0.2987 
    111 H111       26.7164   27.3549    5.2294 H         1 UNK         0.0949 
    112 H112       26.0636   29.7919    6.9679 H         1 UNK         0.0806 
    113 H113       24.8740   28.7351    6.2102 H         1 UNK         0.0806 
    114 H114       25.9572   28.1060    7.4414 H         1 UNK         0.0806 
    115 H115       28.9439   27.7012    4.1939 H         1 UNK         0.3010 
    116 H116       31.1344   27.4310    4.3770 H         1 UNK         0.0829 
    117 H117       30.4692   25.8141    6.1792 H         1 UNK         0.0813 
    118 H118       32.0475   26.5161    6.4794 H         1 UNK         0.0813 
    119 H119       30.6615   27.0813    7.3889 H         1 UNK         0.0813 
    120 H120       30.4710   30.0478    4.0309 H         1 UNK         0.3038 
    121 H121       31.8431   31.7333    5.9881 H         1 UNK         0.0769 
    122 H122       30.6658   32.4164    3.2473 H         1 UNK         0.0811 
    123 H123       29.7938   32.4968    4.7797 H         1 UNK         0.0811 
    124 H124       31.1602   33.5621    4.4848 H         1 UNK         0.0811 
    125 H125       32.6539   30.2145    2.8888 H         1 UNK         0.3204 
    126 H126       35.2273   31.7465    2.7373 H         1 UNK         0.0748 
    127 H127       35.0631   31.4423    0.3054 H         1 UNK         0.0771 
    128 H128       33.5675   30.5361    0.4708 H         1 UNK         0.0771 
    129 H129       33.6191   32.2442    0.8985 H         1 UNK         0.0771 
    130 H130       35.3880   29.7544    4.4937 H         1 UNK         0.2980 
    131 H131       36.4286   27.3223    3.2825 H         1 UNK         0.0545 
    132 H132       38.6828   26.6358    3.2341 H         1 UNK         0.3459 
    133 H133       39.9443   27.8379    3.1770 H         1 UNK         0.3459 
    134 H134       37.1860   26.7449    5.5859 H         1 UNK         0.0616 
    135 H135       36.7573   28.3404    6.1458 H         1 UNK         0.0616 
    136 H136       34.7037   24.6047    5.7365 H         1 UNK         0.0634 
    137 H137       35.6899   25.1956    4.4240 H         1 UNK         0.0634 
@<TRIPOS>BOND
     1    1    2 1    
     2    1   72 1    
     3    1   73 1    
     4    1   74 1    
     5    2    3 2    
     6    2    4 am   BACKBONE|DICT|INTERRES
     7    4    5 1    
     8    4   75 1    
     9    5    6 1    
    10    5   35 1    
    11    5   76 1    
    12    6    7 1    
    13    6   77 1    
    14    6   78 1    
    15    7    8 1    
    16    8    9 1    
    17    8   79 1    
    18    8   80 1    
    19    9   10 ar   
    20    9   14 ar   
    21   10   11 ar   
    22   10   81 1    
    23   11   12 ar   
    24   11   71 1    
    25   12   13 ar   
    26   12   82 1    
    27   13   14 ar   
    28   13   15 1    
    29   14   83 1    
    30   15   16 1    
    31   15   84 1    
    32   15   85 1    
    33   16   17 1    
    34   17   18 1    
    35   17   86 1    
    36   17   87 1    
    37   18   19 1    
    38   18   37 1    
    39   18   88 1    
    40   19   20 am   BACKBONE|DICT|INTERRES
    41   19   89 1    
    42   20   21 2    
    43   20   22 1    
    44   22   23 1    
    45   22   24 1    
    46   22   90 1    
    47   23   91 1    
    48   23   92 1    
    49   23   93 1    
    50   24   25 am   BACKBONE|DICT|INTERRES
    51   24   94 1    
    52   25   26 2    
    53   25   27 1    
    54   27   28 1    
    55   27   29 1    
    56   27   95 1    
    57   28   96 1    
    58   28   97 1    
    59   28   98 1    
    60   29   30 am   BACKBONE|DICT|INTERRES
    61   29   99 1    
    62   30   31 2    
    63   30   32 1    
    64   32   33 1    
    65   32   34 1    
    66   32  100 1    
    67   33  101 1    
    68   33  102 1    
    69   33  103 1    
    70   34   35 am   BACKBONE|DICT|INTERRES
    71   34  104 1    
    72   35   36 2    
    73   37   38 2    
    74   37   39 am   BACKBONE|DICT|INTERRES
    75   39   40 1    
    76   39  105 1    
    77   40   41 1    
    78   40   42 1    
    79   40  106 1    
    80   41  107 1    
    81   41  108 1    
    82   41  109 1    
    83   42   43 2    
    84   42   44 am   BACKBONE|DICT|INTERRES
    85   44   45 1    
    86   44  110 1    
    87   45   46 1    
    88   45   47 1    
    89   45  111 1    
    90   46  112 1    
    91   46  113 1    
    92   46  114 1    
    93   47   48 2    
    94   47   49 am   BACKBONE|DICT|INTERRES
    95   49   50 1    
    96   49  115 1    
    97   50   51 1    
    98   50   52 1    
    99   50  116 1    
   100   51  117 1    
   101   51  118 1    
   102   51  119 1    
   103   52   53 2    
   104   52   54 am   BACKBONE|DICT|INTERRES
   105   54   55 1    
   106   54  120 1    
   107   55   56 1    
   108   55   57 1    
   109   55  121 1    
   110   56  122 1    
   111   56  123 1    
   112   56  124 1    
   113   57   58 2    
   114   57   59 am   BACKBONE|DICT|INTERRES
   115   59   60 1    
   116   59  125 1    
   117   60   61 1    
   118   60   62 1    
   119   60  126 1    
   120   61  127 1    
   121   61  128 1    
   122   61  129 1    
   123   62   63 2    
   124   62   64 am   BACKBONE|DICT|INTERRES
   125   64   65 1    
   126   64  130 1    
   127   65   66 1    
   128   65   69 1    
   129   65  131 1    
   130   66   67 am   BACKBONE|DICT|INTERRES
   131   66   68 2    
   132   67  132 1    
   133   67  133 1    
   134   69   70 1    
   135   69  134 1    
   136   69  135 1    
   137   70   71 1    
   138   71  136 1    
   139   71  137 1    
@<TRIPOS>SUBSTRUCTURE
     1 UNK         1 GROUP             0       ****    0 ROOT    
