@<TRIPOS>MOLECULE
3R136
137   139    1
SMALL
USER_CHARGES


@<TRIPOS>ATOM
      1 CA         35.1333   20.7339    3.7125 C.3       0 UNK        -0.1979 
      2 C          33.9532   21.5873    3.2724 C.2       0 UNK         0.4864 
      3 O          33.5613   22.5078    3.9910 O.2       0 UNK        -0.5359 
      4 N          33.3787   21.2897    2.0990 N.am      1 UNK        -0.4318 
      5 CA         32.2705   22.0383    1.5060 C.3       1 UNK         0.0824 
      6 C6         31.4838   21.1779    0.4822 C.3       12 UNK        -0.0944 
      7 S7         29.9743   21.9917   -0.1587 S.3       12 UNK        -0.2672 
      8 C8         28.6755   21.3710    0.9557 C.3       12 UNK         0.0333 
      9 C9         28.0214   22.5124    1.7192 C.ar      12 UNK        -0.0807 
     10 C10        28.6286   23.0222    2.8672 C.ar      12 UNK        -0.0894 
     11 C11        28.0459   24.0745    3.5774 C.ar      12 UNK        -0.0804 
     12 C12        26.8172   24.5950    3.1536 C.ar      12 UNK        -0.0824 
     13 C13        26.1828   24.0732    2.0191 C.ar      12 UNK        -0.0762 
     14 C14        26.8003   23.0457    1.2961 C.ar      12 UNK        -0.0782 
     15 C15        24.8039   24.5673    1.6007 C.3       12 UNK         0.0230 
     16 S16        24.8652   26.1803    0.7564 S.3       12 UNK        -0.2608 
     17 C17        24.0733   27.2916    1.9821 C.3       12 UNK        -0.0989 
     18 CA         24.8397   28.6170    2.2162 C.3       5 UNK         0.0716 
     19 N          26.2416   28.3598    2.5303 N.am      5 UNK        -0.4135 
     20 C          27.1197   29.2478    3.0059 C.2       4 UNK         0.5031 
     21 O          26.8017   30.3612    3.4243 O.2       4 UNK        -0.5229 
     22 CA         28.6012   28.8235    3.0115 C.3       4 UNK         0.0329 
     23 CB         29.0749   28.6109    4.4568 C.3       4 UNK        -0.2001 
     24 N          28.9244   27.6204    2.2259 N.am      4 UNK        -0.4303 
     25 C          28.7103   27.4405    0.9127 C.2       3 UNK         0.5044 
     26 O          28.1226   28.2555    0.2004 O.2       3 UNK        -0.5152 
     27 CA         29.1995   26.1108    0.3149 C.3       3 UNK         0.0319 
     28 CB         29.1200   26.0706   -1.2253 C.3       3 UNK        -0.2001 
     29 N          30.5355   25.7429    0.7911 N.am      3 UNK        -0.4354 
     30 C          31.6936   26.3952    0.5884 C.2       2 UNK         0.4964 
     31 O          31.8061   27.4147   -0.0903 O.2       2 UNK        -0.5047 
     32 CA         32.9505   25.8100    1.2609 C.3       2 UNK         0.0288 
     33 CB         33.3768   26.6842    2.4497 C.3       2 UNK        -0.2113 
     34 N          32.7429   24.4330    1.7186 N.am      2 UNK        -0.4145 
     35 C          32.7908   23.3636    0.9130 C.2       1 UNK         0.5006 
     36 O          33.2121   23.3963   -0.2455 O.2       1 UNK        -0.5103 
     37 C          24.6524   29.6055    1.0398 C.2       5 UNK         0.5055 
     38 O          23.6035   30.2494    0.9737 O.2       5 UNK        -0.5220 
     39 N          25.6461   29.7133    0.1446 N.am      6 UNK        -0.4450 
     40 CA         25.6364   30.6038   -1.0179 C.3       6 UNK         0.0367 
     41 CB         25.4312   29.7693   -2.2933 C.3       6 UNK        -0.1929 
     42 C          26.9215   31.4404   -1.1209 C.2       6 UNK         0.5070 
     43 O          26.8439   32.6110   -1.4967 O.2       6 UNK        -0.5237 
     44 N          28.0779   30.8409   -0.8110 N.am      7 UNK        -0.4739 
     45 CA         29.3912   31.4847   -0.8541 C.3       7 UNK         0.0276 
     46 CB         30.4687   30.3918   -0.9488 C.3       7 UNK        -0.1927 
     47 C          29.6446   32.3623    0.3819 C.2       7 UNK         0.5013 
     48 O          29.0223   32.1628    1.4268 O.2       7 UNK        -0.5193 
     49 N          30.5984   33.2932    0.2486 N.am      8 UNK        -0.4253 
     50 CA         31.0827   34.1387    1.3446 C.3       8 UNK         0.0242 
     51 CB         31.7592   35.3882    0.7564 C.3       8 UNK        -0.2000 
     52 C          32.0470   33.4034    2.2958 C.2       8 UNK         0.4948 
     53 O          32.2014   33.8329    3.4400 O.2       8 UNK        -0.5275 
     54 N          32.6921   32.3321    1.8118 N.am      9 UNK        -0.4246 
     55 CA         33.5969   31.4816    2.5850 C.3       9 UNK         0.0261 
     56 CB         34.4272   30.6181    1.6205 C.3       9 UNK        -0.1959 
     57 C          32.8082   30.5947    3.5600 C.2       9 UNK         0.5033 
     58 O          31.8571   29.9362    3.1378 O.2       9 UNK        -0.5390 
     59 N          33.2231   30.5823    4.8320 N.am      10 UNK        -0.4215 
     60 CA         32.6289   29.7574    5.8843 C.3       10 UNK         0.0240 
     61 CB         32.9935   30.3509    7.2552 C.3       10 UNK        -0.1982 
     62 C          33.1078   28.3002    5.7864 C.2       10 UNK         0.4970 
     63 O          34.2721   28.0637    5.4566 O.2       10 UNK        -0.4916 
     64 N          32.2160   27.3602    6.1219 N.am      11 UNK        -0.4279 
     65 CA         32.5053   25.9167    6.1842 C.3       11 UNK         0.1003 
     66 C          33.3225   25.4817    7.4379 C.2       11 UNK         0.5709 
     67 N          33.5268   26.3360    8.4345 N.am      11 UNK        -0.7358 
     68 O          33.7879   24.3469    7.5064 O.2       11 UNK        -0.4999 
     69 C69        31.2131   25.0687    6.0433 C.3       12 UNK        -0.0954 
     70 S70        30.3777   25.2918    4.4386 S.3       12 UNK        -0.2268 
     71 C71        28.7381   24.6000    4.8259 C.3       12 UNK         0.0203 
     72 H72        35.3642   19.9522    2.9890 H         1 UNK         0.0888 
     73 H73        36.0196   21.3557    3.8354 H         1 UNK         0.0888 
     74 H74        34.9154   20.2581    4.6683 H         1 UNK         0.0888 
     75 H75        33.7570   20.5412    1.5356 H         1 UNK         0.3017 
     76 H76        31.5761   22.2838    2.3101 H         1 UNK         0.0873 
     77 H77        32.1175   20.9265   -0.3704 H         1 UNK         0.0745 
     78 H78        31.2090   20.2216    0.9296 H         1 UNK         0.0745 
     79 H79        27.9326   20.8344    0.3637 H         1 UNK         0.0705 
     80 H80        29.0802   20.6444    1.6612 H         1 UNK         0.0705 
     81 H81        29.5589   22.5991    3.2167 H         1 UNK         0.1334 
     82 H82        26.3414   25.3854    3.7179 H         1 UNK         0.1417 
     83 H83        26.3182   22.6426    0.4156 H         1 UNK         0.1562 
     84 H84        24.1480   24.6007    2.4711 H         1 UNK         0.0748 
     85 H85        24.3407   23.8512    0.9202 H         1 UNK         0.0748 
     86 H86        23.9852   26.7758    2.9388 H         1 UNK         0.0940 
     87 H87        23.0460   27.4862    1.6668 H         1 UNK         0.0940 
     88 H88        24.4000   29.1006    3.0913 H         1 UNK         0.0703 
     89 H89        26.5992   27.4759    2.1997 H         1 UNK         0.3081 
     90 H90        29.1710   29.6482    2.5789 H         1 UNK         0.0719 
     91 H91        28.9589   29.5228    5.0439 H         1 UNK         0.0809 
     92 H92        30.1291   28.3421    4.4813 H         1 UNK         0.0809 
     93 H93        28.5113   27.8228    4.9566 H         1 UNK         0.0809 
     94 H94        29.4116   26.8891    2.7253 H         1 UNK         0.2990 
     95 H95        28.5224   25.3445    0.6915 H         1 UNK         0.0690 
     96 H96        29.4613   25.1109   -1.6134 H         1 UNK         0.0788 
     97 H97        29.7223   26.8550   -1.6845 H         1 UNK         0.0788 
     98 H98        28.0926   26.2104   -1.5641 H         1 UNK         0.0788 
     99 H99        30.5686   24.9144    1.3663 H         1 UNK         0.2993 
    100 H100       33.7563   25.8219    0.5235 H         1 UNK         0.0949 
    101 H101       33.6509   27.6852    2.1157 H         1 UNK         0.0767 
    102 H102       32.5704   26.8034    3.1724 H         1 UNK         0.0767 
    103 H103       34.2403   26.2683    2.9690 H         1 UNK         0.0767 
    104 H104       32.4841   24.3030    2.6886 H         1 UNK         0.3013 
    105 H105       26.4806   29.1454    0.2703 H         1 UNK         0.3121 
    106 H106       24.8093   31.3127   -0.9404 H         1 UNK         0.0774 
    107 H107       25.4287   30.4039   -3.1805 H         1 UNK         0.0815 
    108 H108       26.2220   29.0287   -2.4209 H         1 UNK         0.0815 
    109 H109       24.4785   29.2401   -2.2696 H         1 UNK         0.0815 
    110 H110       28.0723   29.8768   -0.4832 H         1 UNK         0.2987 
    111 H111       29.4427   32.1100   -1.7484 H         1 UNK         0.0949 
    112 H112       30.2738   29.7051   -1.7728 H         1 UNK         0.0806 
    113 H113       31.4575   30.8205   -1.1140 H         1 UNK         0.0806 
    114 H114       30.5205   29.8025   -0.0317 H         1 UNK         0.0806 
    115 H115       31.0543   33.4048   -0.6462 H         1 UNK         0.3010 
    116 H116       30.2252   34.4648    1.9379 H         1 UNK         0.0829 
    117 H117       31.0683   35.9589    0.1355 H         1 UNK         0.0813 
    118 H118       32.1043   36.0540    1.5489 H         1 UNK         0.0813 
    119 H119       32.6267   35.1311    0.1472 H         1 UNK         0.0813 
    120 H120       32.4726   32.0237    0.8775 H         1 UNK         0.3038 
    121 H121       34.2784   32.1230    3.1481 H         1 UNK         0.0769 
    122 H122       33.7936   29.9721    1.0104 H         1 UNK         0.0811 
    123 H123       35.1159   29.9739    2.1690 H         1 UNK         0.0811 
    124 H124       35.0251   31.2344    0.9487 H         1 UNK         0.0811 
    125 H125       34.0404   31.1180    5.0861 H         1 UNK         0.3204 
    126 H126       31.5430   29.7881    5.7765 H         1 UNK         0.0748 
    127 H127       32.5260   29.7874    8.0636 H         1 UNK         0.0771 
    128 H128       34.0706   30.3382    7.4288 H         1 UNK         0.0771 
    129 H129       32.6517   31.3825    7.3440 H         1 UNK         0.0771 
    130 H130       31.2874   27.6338    6.4051 H         1 UNK         0.2980 
    131 H131       33.1425   25.6722    5.3323 H         1 UNK         0.0545 
    132 H132       33.1541   27.2699    8.3952 H         1 UNK         0.3459 
    133 H133       34.0610   26.0382    9.2355 H         1 UNK         0.3459 
    134 H134       31.4392   24.0046    6.1371 H         1 UNK         0.0616 
    135 H135       30.5145   25.3078    6.8472 H         1 UNK         0.0616 
    136 H136       28.8459   23.7764    5.5334 H         1 UNK         0.0634 
    137 H137       28.1353   25.3614    5.3226 H         1 UNK         0.0634 
@<TRIPOS>BOND
     1    1    2 1    
     2    1   72 1    
     3    1   73 1    
     4    1   74 1    
     5    2    3 2    
     6    2    4 am   BACKBONE|DICT|INTERRES
     7    4    5 1    
     8    4   75 1    
     9    5    6 1    
    10    5   35 1    
    11    5   76 1    
    12    6    7 1    
    13    6   77 1    
    14    6   78 1    
    15    7    8 1    
    16    8    9 1    
    17    8   79 1    
    18    8   80 1    
    19    9   10 ar   
    20    9   14 ar   
    21   10   11 ar   
    22   10   81 1    
    23   11   12 ar   
    24   11   71 1    
    25   12   13 ar   
    26   12   82 1    
    27   13   14 ar   
    28   13   15 1    
    29   14   83 1    
    30   15   16 1    
    31   15   84 1    
    32   15   85 1    
    33   16   17 1    
    34   17   18 1    
    35   17   86 1    
    36   17   87 1    
    37   18   19 1    
    38   18   37 1    
    39   18   88 1    
    40   19   20 am   BACKBONE|DICT|INTERRES
    41   19   89 1    
    42   20   21 2    
    43   20   22 1    
    44   22   23 1    
    45   22   24 1    
    46   22   90 1    
    47   23   91 1    
    48   23   92 1    
    49   23   93 1    
    50   24   25 am   BACKBONE|DICT|INTERRES
    51   24   94 1    
    52   25   26 2    
    53   25   27 1    
    54   27   28 1    
    55   27   29 1    
    56   27   95 1    
    57   28   96 1    
    58   28   97 1    
    59   28   98 1    
    60   29   30 am   BACKBONE|DICT|INTERRES
    61   29   99 1    
    62   30   31 2    
    63   30   32 1    
    64   32   33 1    
    65   32   34 1    
    66   32  100 1    
    67   33  101 1    
    68   33  102 1    
    69   33  103 1    
    70   34   35 am   BACKBONE|DICT|INTERRES
    71   34  104 1    
    72   35   36 2    
    73   37   38 2    
    74   37   39 am   BACKBONE|DICT|INTERRES
    75   39   40 1    
    76   39  105 1    
    77   40   41 1    
    78   40   42 1    
    79   40  106 1    
    80   41  107 1    
    81   41  108 1    
    82   41  109 1    
    83   42   43 2    
    84   42   44 am   BACKBONE|DICT|INTERRES
    85   44   45 1    
    86   44  110 1    
    87   45   46 1    
    88   45   47 1    
    89   45  111 1    
    90   46  112 1    
    91   46  113 1    
    92   46  114 1    
    93   47   48 2    
    94   47   49 am   BACKBONE|DICT|INTERRES
    95   49   50 1    
    96   49  115 1    
    97   50   51 1    
    98   50   52 1    
    99   50  116 1    
   100   51  117 1    
   101   51  118 1    
   102   51  119 1    
   103   52   53 2    
   104   52   54 am   BACKBONE|DICT|INTERRES
   105   54   55 1    
   106   54  120 1    
   107   55   56 1    
   108   55   57 1    
   109   55  121 1    
   110   56  122 1    
   111   56  123 1    
   112   56  124 1    
   113   57   58 2    
   114   57   59 am   BACKBONE|DICT|INTERRES
   115   59   60 1    
   116   59  125 1    
   117   60   61 1    
   118   60   62 1    
   119   60  126 1    
   120   61  127 1    
   121   61  128 1    
   122   61  129 1    
   123   62   63 2    
   124   62   64 am   BACKBONE|DICT|INTERRES
   125   64   65 1    
   126   64  130 1    
   127   65   66 1    
   128   65   69 1    
   129   65  131 1    
   130   66   67 am   BACKBONE|DICT|INTERRES
   131   66   68 2    
   132   67  132 1    
   133   67  133 1    
   134   69   70 1    
   135   69  134 1    
   136   69  135 1    
   137   70   71 1    
   138   71  136 1    
   139   71  137 1    
@<TRIPOS>SUBSTRUCTURE
     1 UNK         1 GROUP             0       ****    0 ROOT    
