@<TRIPOS>MOLECULE
3R136
137   139    1
SMALL
USER_CHARGES


@<TRIPOS>ATOM
      1 CA         27.2846   23.1191    0.4926 C.3       0 UNK        -0.1979 
      2 C          28.2874   24.0130   -0.2201 C.2       0 UNK         0.4864 
      3 O          28.4151   25.1864    0.1298 O.2       0 UNK        -0.5359 
      4 N          28.9927   23.4664   -1.2204 N.am      1 UNK        -0.4318 
      5 CA         30.0355   24.1253   -2.0170 C.3       1 UNK         0.0824 
      6 C6         31.3280   24.4159   -1.2038 C.3       12 UNK        -0.0944 
      7 S7         32.1658   22.8648   -0.7487 S.3       12 UNK        -0.2672 
      8 C8         33.4411   23.4670    0.4066 C.3       12 UNK         0.0333 
      9 C9         32.9451   23.7046    1.8318 C.ar      12 UNK        -0.0807 
     10 C10        33.4782   24.7638    2.5732 C.ar      12 UNK        -0.0894 
     11 C11        33.1145   24.9568    3.9088 C.ar      12 UNK        -0.0804 
     12 C12        32.2092   24.0779    4.5075 C.ar      12 UNK        -0.0824 
     13 C13        31.6527   23.0246    3.7776 C.ar      12 UNK        -0.0762 
     14 C14        32.0268   22.8407    2.4427 C.ar      12 UNK        -0.0782 
     15 C15        30.6768   22.0628    4.4390 C.3       12 UNK         0.0230 
     16 S16        28.9522   22.6208    4.2722 S.3       12 UNK        -0.2608 
     17 C17        28.8583   23.9608    5.5121 C.3       12 UNK        -0.0989 
     18 CA         28.6954   25.3667    4.8734 C.3       5 UNK         0.0716 
     19 N          27.4950   25.4140    4.0236 N.am      5 UNK        -0.4135 
     20 C          27.2187   26.3222    3.0820 C.2       4 UNK         0.5031 
     21 O          27.9261   27.3052    2.8486 O.2       4 UNK        -0.5229 
     22 CA         25.9009   26.1488    2.3240 C.3       4 UNK         0.0329 
     23 CB         24.7095   26.6470    3.1633 C.3       4 UNK        -0.2001 
     24 N          25.9956   26.9094    1.0834 N.am      4 UNK        -0.4303 
     25 C          25.3086   26.6659   -0.0363 C.2       3 UNK         0.5044 
     26 O          24.4567   25.7835   -0.1478 O.2       3 UNK        -0.5152 
     27 CA         25.6448   27.5492   -1.2402 C.3       3 UNK         0.0319 
     28 CB         25.1906   29.0045   -0.9925 C.3       3 UNK        -0.2001 
     29 N          27.0766   27.4693   -1.5389 N.am      3 UNK        -0.4354 
     30 C          27.6647   27.9901   -2.6253 C.2       2 UNK         0.4964 
     31 O          27.0589   28.5890   -3.5150 O.2       2 UNK        -0.5047 
     32 CA         29.1882   27.8204   -2.7571 C.3       2 UNK         0.0288 
     33 CB         29.9147   28.9904   -2.0773 C.3       2 UNK        -0.2113 
     34 N          29.6810   26.5580   -2.2059 N.am      2 UNK        -0.4145 
     35 C          29.4748   25.3556   -2.7612 C.2       1 UNK         0.5006 
     36 O          28.8660   25.1872   -3.8200 O.2       1 UNK        -0.5103 
     37 C          28.7146   26.4962    5.9388 C.2       5 UNK         0.5055 
     38 O          28.8875   26.2177    7.1269 O.2       5 UNK        -0.5220 
     39 N          28.5103   27.7405    5.4919 N.am      6 UNK        -0.4450 
     40 CA         28.3878   28.9855    6.2558 C.3       6 UNK         0.0367 
     41 CB         27.2964   28.8870    7.3441 C.3       6 UNK        -0.1929 
     42 C          28.0580   30.1706    5.3301 C.2       6 UNK         0.5070 
     43 O          28.3954   31.3053    5.6713 O.2       6 UNK        -0.5237 
     44 N          27.3985   29.9100    4.1916 N.am      7 UNK        -0.4739 
     45 CA         27.0366   30.9076    3.1883 C.3       7 UNK         0.0276 
     46 CB         25.6605   30.5505    2.5986 C.3       7 UNK        -0.1927 
     47 C          28.1313   30.9326    2.1144 C.2       7 UNK         0.5013 
     48 O          28.1126   30.0969    1.2086 O.2       7 UNK        -0.5193 
     49 N          29.0760   31.8721    2.2654 N.am      8 UNK        -0.4253 
     50 CA         30.3119   32.0061    1.4869 C.3       8 UNK         0.0242 
     51 CB         30.0227   32.3114   -0.0016 C.3       8 UNK        -0.2000 
     52 C          31.2336   30.7988    1.7396 C.2       8 UNK         0.4948 
     53 O          31.5054   30.5061    2.9047 O.2       8 UNK        -0.5275 
     54 N          31.7424   30.1516    0.6801 N.am      9 UNK        -0.4246 
     55 CA         32.5595   28.9235    0.7032 C.3       9 UNK         0.0261 
     56 CB         31.7041   27.7330    1.1918 C.3       9 UNK        -0.1959 
     57 C          33.8822   29.0280    1.4985 C.2       9 UNK         0.5033 
     58 O          34.4787   27.9989    1.8138 O.2       9 UNK        -0.5390 
     59 N          34.3110   30.2605    1.8096 N.am      10 UNK        -0.4215 
     60 CA         35.4098   30.6291    2.7092 C.3       10 UNK         0.0240 
     61 CB         36.7706   30.1350    2.1700 C.3       10 UNK        -0.1982 
     62 C          35.1654   30.2369    4.1844 C.2       10 UNK         0.4970 
     63 O          36.1358   30.0562    4.9230 O.2       10 UNK        -0.4916 
     64 N          33.8955   30.1470    4.6059 N.am      11 UNK        -0.4279 
     65 CA         33.5003   29.8602    5.9964 C.3       11 UNK         0.1003 
     66 C          32.1779   30.5328    6.4588 C.2       11 UNK         0.5709 
     67 N          31.3637   31.0959    5.5783 N.am      11 UNK        -0.7358 
     68 O          31.8965   30.5680    7.6546 O.2       11 UNK        -0.4999 
     69 C69        33.5485   28.3471    6.3403 C.3       12 UNK        -0.0954 
     70 S70        32.5060   27.3045    5.2612 S.3       12 UNK        -0.2268 
     71 C71        33.7381   26.0789    4.7243 C.3       12 UNK         0.0203 
     72 H72        27.4497   23.1585    1.5687 H         1 UNK         0.0888 
     73 H73        26.2694   23.4568    0.2865 H         1 UNK         0.0888 
     74 H74        27.3691   22.0795    0.1772 H         1 UNK         0.0888 
     75 H75        28.8161   22.5039   -1.4712 H         1 UNK         0.3017 
     76 H76        30.3011   23.4177   -2.8046 H         1 UNK         0.0873 
     77 H77        32.0326   25.0114   -1.7877 H         1 UNK         0.0745 
     78 H78        31.1101   24.9810   -0.2960 H         1 UNK         0.0745 
     79 H79        33.8867   24.3748   -0.0035 H         1 UNK         0.0705 
     80 H80        34.2402   22.7261    0.4483 H         1 UNK         0.0705 
     81 H81        34.1991   25.4283    2.1167 H         1 UNK         0.1334 
     82 H82        31.9452   24.2173    5.5463 H         1 UNK         0.1417 
     83 H83        31.6149   22.0102    1.8863 H         1 UNK         0.1562 
     84 H84        30.9246   21.9278    5.4930 H         1 UNK         0.0748 
     85 H85        30.7673   21.0759    3.9827 H         1 UNK         0.0748 
     86 H86        29.7420   23.9253    6.1502 H         1 UNK         0.0940 
     87 H87        28.0156   23.7467    6.1724 H         1 UNK         0.0940 
     88 H88        29.5614   25.5401    4.2299 H         1 UNK         0.0703 
     89 H89        26.8416   24.6584    4.1674 H         1 UNK         0.3081 
     90 H90        25.7706   25.0908    2.0908 H         1 UNK         0.0719 
     91 H91        24.8227   27.6931    3.4484 H         1 UNK         0.0809 
     92 H92        23.7707   26.5500    2.6177 H         1 UNK         0.0809 
     93 H93        24.6071   26.0691    4.0824 H         1 UNK         0.0809 
     94 H94        26.7278   27.6121    1.0877 H         1 UNK         0.2990 
     95 H95        25.0964   27.1549   -2.0983 H         1 UNK         0.0690 
     96 H96        25.1928   29.5876   -1.9129 H         1 UNK         0.0788 
     97 H97        25.8392   29.5131   -0.2794 H         1 UNK         0.0788 
     98 H98        24.1742   29.0400   -0.5978 H         1 UNK         0.0788 
     99 H99        27.6360   26.9217   -0.8907 H         1 UNK         0.2993 
    100 H100       29.4313   27.8411   -3.8220 H         1 UNK         0.0949 
    101 H101       30.9961   28.9035   -2.1823 H         1 UNK         0.0767 
    102 H102       29.6198   29.9404   -2.5251 H         1 UNK         0.0767 
    103 H103       29.6745   29.0435   -1.0146 H         1 UNK         0.0767 
    104 H104       30.1244   26.5934   -1.2999 H         1 UNK         0.3013 
    105 H105       28.4492   27.8338    4.4787 H         1 UNK         0.3121 
    106 H106       29.3503   29.1859    6.7295 H         1 UNK         0.0774 
    107 H107       27.1340   29.8530    7.8245 H         1 UNK         0.0815 
    108 H108       26.3413   28.5656    6.9272 H         1 UNK         0.0815 
    109 H109       27.5705   28.1902    8.1353 H         1 UNK         0.0815 
    110 H110       27.2235   28.9511    3.9218 H         1 UNK         0.2987 
    111 H111       26.9573   31.8978    3.6431 H         1 UNK         0.0949 
    112 H112       25.6554   29.5579    2.1497 H         1 UNK         0.0806 
    113 H113       24.8843   30.5743    3.3635 H         1 UNK         0.0806 
    114 H114       25.3741   31.2606    1.8219 H         1 UNK         0.0806 
    115 H115       29.0184   32.4628    3.0840 H         1 UNK         0.3010 
    116 H116       30.8362   32.8698    1.8987 H         1 UNK         0.0829 
    117 H117       29.3880   33.1922   -0.0992 H         1 UNK         0.0813 
    118 H118       30.9410   32.5237   -0.5502 H         1 UNK         0.0813 
    119 H119       29.5147   31.4895   -0.5052 H         1 UNK         0.0813 
    120 H120       31.4950   30.4948   -0.2371 H         1 UNK         0.3038 
    121 H121       32.8441   28.7266   -0.3312 H         1 UNK         0.0769 
    122 H122       32.2184   26.7872    1.0245 H         1 UNK         0.0811 
    123 H123       30.7472   27.6776    0.6741 H         1 UNK         0.0811 
    124 H124       31.4942   27.8010    2.2602 H         1 UNK         0.0811 
    125 H125       33.7415   31.0294    1.4863 H         1 UNK         0.3204 
    126 H126       35.4401   31.7196    2.7023 H         1 UNK         0.0748 
    127 H127       37.5962   30.5629    2.7399 H         1 UNK         0.0771 
    128 H128       36.8631   29.0505    2.2335 H         1 UNK         0.0771 
    129 H129       36.9143   30.4242    1.1290 H         1 UNK         0.0771 
    130 H130       33.1340   30.2731    3.9465 H         1 UNK         0.2980 
    131 H131       34.2457   30.3417    6.6325 H         1 UNK         0.0545 
    132 H132       30.4955   31.4999    5.9020 H         1 UNK         0.3459 
    133 H133       31.5013   30.9703    4.5780 H         1 UNK         0.3459 
    134 H134       34.5827   28.0057    6.2805 H         1 UNK         0.0616 
    135 H135       33.2496   28.1740    7.3756 H         1 UNK         0.0616 
    136 H136       34.5173   26.5884    4.1554 H         1 UNK         0.0634 
    137 H137       34.2232   25.6483    5.6014 H         1 UNK         0.0634 
@<TRIPOS>BOND
     1    1    2 1    
     2    1   72 1    
     3    1   73 1    
     4    1   74 1    
     5    2    3 2    
     6    2    4 am   BACKBONE|DICT|INTERRES
     7    4    5 1    
     8    4   75 1    
     9    5    6 1    
    10    5   35 1    
    11    5   76 1    
    12    6    7 1    
    13    6   77 1    
    14    6   78 1    
    15    7    8 1    
    16    8    9 1    
    17    8   79 1    
    18    8   80 1    
    19    9   10 ar   
    20    9   14 ar   
    21   10   11 ar   
    22   10   81 1    
    23   11   12 ar   
    24   11   71 1    
    25   12   13 ar   
    26   12   82 1    
    27   13   14 ar   
    28   13   15 1    
    29   14   83 1    
    30   15   16 1    
    31   15   84 1    
    32   15   85 1    
    33   16   17 1    
    34   17   18 1    
    35   17   86 1    
    36   17   87 1    
    37   18   19 1    
    38   18   37 1    
    39   18   88 1    
    40   19   20 am   BACKBONE|DICT|INTERRES
    41   19   89 1    
    42   20   21 2    
    43   20   22 1    
    44   22   23 1    
    45   22   24 1    
    46   22   90 1    
    47   23   91 1    
    48   23   92 1    
    49   23   93 1    
    50   24   25 am   BACKBONE|DICT|INTERRES
    51   24   94 1    
    52   25   26 2    
    53   25   27 1    
    54   27   28 1    
    55   27   29 1    
    56   27   95 1    
    57   28   96 1    
    58   28   97 1    
    59   28   98 1    
    60   29   30 am   BACKBONE|DICT|INTERRES
    61   29   99 1    
    62   30   31 2    
    63   30   32 1    
    64   32   33 1    
    65   32   34 1    
    66   32  100 1    
    67   33  101 1    
    68   33  102 1    
    69   33  103 1    
    70   34   35 am   BACKBONE|DICT|INTERRES
    71   34  104 1    
    72   35   36 2    
    73   37   38 2    
    74   37   39 am   BACKBONE|DICT|INTERRES
    75   39   40 1    
    76   39  105 1    
    77   40   41 1    
    78   40   42 1    
    79   40  106 1    
    80   41  107 1    
    81   41  108 1    
    82   41  109 1    
    83   42   43 2    
    84   42   44 am   BACKBONE|DICT|INTERRES
    85   44   45 1    
    86   44  110 1    
    87   45   46 1    
    88   45   47 1    
    89   45  111 1    
    90   46  112 1    
    91   46  113 1    
    92   46  114 1    
    93   47   48 2    
    94   47   49 am   BACKBONE|DICT|INTERRES
    95   49   50 1    
    96   49  115 1    
    97   50   51 1    
    98   50   52 1    
    99   50  116 1    
   100   51  117 1    
   101   51  118 1    
   102   51  119 1    
   103   52   53 2    
   104   52   54 am   BACKBONE|DICT|INTERRES
   105   54   55 1    
   106   54  120 1    
   107   55   56 1    
   108   55   57 1    
   109   55  121 1    
   110   56  122 1    
   111   56  123 1    
   112   56  124 1    
   113   57   58 2    
   114   57   59 am   BACKBONE|DICT|INTERRES
   115   59   60 1    
   116   59  125 1    
   117   60   61 1    
   118   60   62 1    
   119   60  126 1    
   120   61  127 1    
   121   61  128 1    
   122   61  129 1    
   123   62   63 2    
   124   62   64 am   BACKBONE|DICT|INTERRES
   125   64   65 1    
   126   64  130 1    
   127   65   66 1    
   128   65   69 1    
   129   65  131 1    
   130   66   67 am   BACKBONE|DICT|INTERRES
   131   66   68 2    
   132   67  132 1    
   133   67  133 1    
   134   69   70 1    
   135   69  134 1    
   136   69  135 1    
   137   70   71 1    
   138   71  136 1    
   139   71  137 1    
@<TRIPOS>SUBSTRUCTURE
     1 UNK         1 GROUP             0       ****    0 ROOT    
