@<TRIPOS>MOLECULE
3R136
137   139    1
SMALL
USER_CHARGES


@<TRIPOS>ATOM
      1 CA         30.8876   23.4274   -3.5678 C.3       0 UNK        -0.1979 
      2 C          30.0255   22.6454   -2.5871 C.2       0 UNK         0.4864 
      3 O          29.2541   21.7837   -3.0127 O.2       0 UNK        -0.5359 
      4 N          30.1638   22.9462   -1.2869 N.am      1 UNK        -0.4318 
      5 CA         29.4203   22.3687   -0.1541 C.3       1 UNK         0.0824 
      6 C6         29.6184   20.8289    0.0031 C.3       12 UNK        -0.0944 
      7 S7         31.3707   20.3055   -0.0716 S.3       12 UNK        -0.2672 
      8 C8         31.8152   20.1275    1.6846 C.3       12 UNK         0.0333 
      9 C9         31.7273   21.4513    2.4286 C.ar      12 UNK        -0.0807 
     10 C10        32.6758   22.4547    2.2047 C.ar      12 UNK        -0.0894 
     11 C11        32.5952   23.6834    2.8702 C.ar      12 UNK        -0.0804 
     12 C12        31.5445   23.8893    3.7760 C.ar      12 UNK        -0.0824 
     13 C13        30.5832   22.9008    3.9958 C.ar      12 UNK        -0.0762 
     14 C14        30.6856   21.6785    3.3297 C.ar      12 UNK        -0.0782 
     15 C15        29.4097   23.1609    4.9238 C.3       12 UNK         0.0230 
     16 S16        27.9499   23.6409    3.9511 S.3       12 UNK        -0.2608 
     17 C17        27.6410   25.3567    4.4887 C.3       12 UNK        -0.0989 
     18 CA         28.3811   26.4182    3.6369 C.3       5 UNK         0.0716 
     19 N          28.0053   26.3956    2.2178 N.am      5 UNK        -0.4135 
     20 C          28.6279   27.1164    1.2694 C.2       4 UNK         0.5031 
     21 O          29.6393   27.7859    1.4916 O.2       4 UNK        -0.5229 
     22 CA         28.0773   27.1030   -0.1688 C.3       4 UNK         0.0329 
     23 CB         29.1279   26.5455   -1.1421 C.3       4 UNK        -0.2001 
     24 N          26.8325   26.3491   -0.3191 N.am      4 UNK        -0.4303 
     25 C          25.6101   26.8413   -0.0694 C.2       3 UNK         0.5044 
     26 O          25.4020   28.0015    0.2864 O.2       3 UNK        -0.5152 
     27 CA         24.4112   25.8846   -0.2318 C.3       3 UNK         0.0319 
     28 CB         23.7233   26.1106   -1.5877 C.3       3 UNK        -0.2001 
     29 N          24.7588   24.4663   -0.1016 N.am      3 UNK        -0.4354 
     30 C          25.2600   23.8982    1.0037 C.2       2 UNK         0.4964 
     31 O          25.4299   24.5109    2.0565 O.2       2 UNK        -0.5047 
     32 CA         25.6766   22.4163    0.9118 C.3       2 UNK         0.0288 
     33 CB         24.9313   21.6341   -0.1936 C.3       2 UNK        -0.2113 
     34 N          27.1298   22.2389    0.7642 N.am      2 UNK        -0.4145 
     35 C          27.9255   22.7830   -0.1719 C.2       1 UNK         0.5006 
     36 O          27.5200   23.5992   -1.0052 O.2       1 UNK        -0.5103 
     37 C          28.1504   27.8314    4.2119 C.2       5 UNK         0.5055 
     38 O          27.0087   28.2961    4.2250 O.2       5 UNK        -0.5220 
     39 N          29.2398   28.4799    4.6522 N.am      6 UNK        -0.4450 
     40 CA         29.3086   29.8614    5.1473 C.3       6 UNK         0.0367 
     41 CB         28.5944   29.9901    6.5098 C.3       6 UNK        -0.1929 
     42 C          28.8242   30.8969    4.1096 C.2       6 UNK         0.5070 
     43 O          28.0397   31.7865    4.4434 O.2       6 UNK        -0.5237 
     44 N          29.2965   30.7512    2.8617 N.am      7 UNK        -0.4739 
     45 CA         28.9933   31.6345    1.7286 C.3       7 UNK         0.0276 
     46 CB         29.6571   31.0766    0.4587 C.3       7 UNK        -0.1927 
     47 C          29.4089   33.1026    1.9405 C.2       7 UNK         0.5013 
     48 O          28.7114   34.0004    1.4656 O.2       7 UNK        -0.5193 
     49 N          30.5221   33.3181    2.6490 N.am      8 UNK        -0.4253 
     50 CA         31.0301   34.6258    3.0542 C.3       8 UNK         0.0242 
     51 CB         31.9416   35.1984    1.9464 C.3       8 UNK        -0.2000 
     52 C          31.7082   34.4643    4.4238 C.2       8 UNK         0.4948 
     53 O          31.1589   33.7809    5.2902 O.2       8 UNK        -0.5275 
     54 N          32.9012   35.0524    4.5972 N.am      9 UNK        -0.4246 
     55 CA         33.7614   34.8727    5.7757 C.3       9 UNK         0.0261 
     56 CB         34.9063   35.8979    5.7257 C.3       9 UNK        -0.1959 
     57 C          34.3230   33.4416    5.9128 C.2       9 UNK         0.5033 
     58 O          34.7286   33.0513    7.0086 O.2       9 UNK        -0.5390 
     59 N          34.3202   32.6915    4.8067 N.am      10 UNK        -0.4215 
     60 CA         34.5917   31.2637    4.7164 C.3       10 UNK         0.0240 
     61 CB         36.0087   31.0512    4.1549 C.3       10 UNK        -0.1982 
     62 C          33.5283   30.6432    3.7989 C.2       10 UNK         0.4970 
     63 O          32.7837   31.3720    3.1332 O.2       10 UNK        -0.4916 
     64 N          33.4719   29.3092    3.7817 N.am      11 UNK        -0.4279 
     65 CA         32.6204   28.5370    2.8709 C.3       11 UNK         0.1003 
     66 C          33.1280   28.5277    1.4022 C.2       11 UNK         0.5709 
     67 N          32.2437   28.2401    0.4585 N.am      11 UNK        -0.7358 
     68 O          34.3022   28.7556    1.1158 O.2       11 UNK        -0.4999 
     69 C69        32.3407   27.1162    3.4196 C.3       12 UNK        -0.0954 
     70 S70        33.8236   26.1059    3.7613 S.3       12 UNK        -0.2268 
     71 C71        33.6405   24.7563    2.5421 C.3       12 UNK         0.0203 
     72 H72        31.5227   24.1558   -3.0638 H         1 UNK         0.0888 
     73 H73        31.5295   22.7478   -4.1277 H         1 UNK         0.0888 
     74 H74        30.2560   23.9628   -4.2763 H         1 UNK         0.0888 
     75 H75        30.8257   23.6633   -1.0296 H         1 UNK         0.3017 
     76 H76        29.8377   22.8471    0.7331 H         1 UNK         0.0873 
     77 H77        29.1934   20.4729    0.9423 H         1 UNK         0.0745 
     78 H78        29.0833   20.2960   -0.7847 H         1 UNK         0.0745 
     79 H79        32.8341   19.7435    1.7533 H         1 UNK         0.0705 
     80 H80        31.1738   19.3742    2.1449 H         1 UNK         0.0705 
     81 H81        33.4728   22.2799    1.4944 H         1 UNK         0.1334 
     82 H82        31.4491   24.8197    4.3113 H         1 UNK         0.1417 
     83 H83        29.9396   20.9137    3.4991 H         1 UNK         0.1562 
     84 H84        29.6615   23.9269    5.6584 H         1 UNK         0.0748 
     85 H85        29.1782   22.2586    5.4917 H         1 UNK         0.0748 
     86 H86        27.9058   25.4500    5.5436 H         1 UNK         0.0940 
     87 H87        26.5630   25.5250    4.4410 H         1 UNK         0.0940 
     88 H88        29.4467   26.1909    3.6894 H         1 UNK         0.0703 
     89 H89        27.1706   25.8713    1.9859 H         1 UNK         0.3081 
     90 H90        27.8886   28.1416   -0.4474 H         1 UNK         0.0719 
     91 H91        30.0112   27.1841   -1.1729 H         1 UNK         0.0809 
     92 H92        28.7399   26.4832   -2.1589 H         1 UNK         0.0809 
     93 H93        29.4567   25.5514   -0.8456 H         1 UNK         0.0809 
     94 H94        26.9230   25.3778   -0.6097 H         1 UNK         0.2990 
     95 H95        23.6970   26.1237    0.5590 H         1 UNK         0.0690 
     96 H96        22.8219   25.5047   -1.6822 H         1 UNK         0.0788 
     97 H97        24.3837   25.8653   -2.4205 H         1 UNK         0.0788 
     98 H98        23.4243   27.1532   -1.7049 H         1 UNK         0.0788 
     99 H99        24.6909   23.9011   -0.9359 H         1 UNK         0.2993 
    100 H100       25.4050   21.9709    1.8704 H         1 UNK         0.0949 
    101 H101       23.8507   21.7550   -0.1034 H         1 UNK         0.0767 
    102 H102       25.2203   21.9521   -1.1960 H         1 UNK         0.0767 
    103 H103       25.1387   20.5664   -0.1196 H         1 UNK         0.0767 
    104 H104       27.5558   21.6439    1.4602 H         1 UNK         0.3013 
    105 H105       30.1254   28.0006    4.5951 H         1 UNK         0.3121 
    106 H106       30.3654   30.0783    5.3127 H         1 UNK         0.0774 
    107 H107       28.7404   30.9847    6.9330 H         1 UNK         0.0815 
    108 H108       27.5194   29.8300    6.4213 H         1 UNK         0.0815 
    109 H109       28.9828   29.2719    7.2316 H         1 UNK         0.0815 
    110 H110       29.8711   29.9464    2.6560 H         1 UNK         0.2987 
    111 H111       27.9108   31.6221    1.5853 H         1 UNK         0.0949 
    112 H112       29.2632   30.0947    0.2017 H         1 UNK         0.0806 
    113 H113       29.4739   31.7273   -0.3976 H         1 UNK         0.0806 
    114 H114       30.7381   30.9861    0.5746 H         1 UNK         0.0806 
    115 H115       31.0370   32.5191    3.0060 H         1 UNK         0.3010 
    116 H116       30.1907   35.3080    3.2052 H         1 UNK         0.0829 
    117 H117       31.4056   35.2713    0.9998 H         1 UNK         0.0813 
    118 H118       32.2840   36.2052    2.1883 H         1 UNK         0.0813 
    119 H119       32.8182   34.5716    1.7770 H         1 UNK         0.0813 
    120 H120       33.2772   35.6082    3.8421 H         1 UNK         0.3038 
    121 H121       33.1602   35.0719    6.6655 H         1 UNK         0.0769 
    122 H122       35.5386   35.7559    4.8483 H         1 UNK         0.0811 
    123 H123       35.5461   35.8108    6.6051 H         1 UNK         0.0811 
    124 H124       34.5253   36.9191    5.7055 H         1 UNK         0.0811 
    125 H125       33.8956   33.0767    3.9735 H         1 UNK         0.3204 
    126 H126       34.5081   30.8001    5.7018 H         1 UNK         0.0748 
    127 H127       36.2567   29.9908    4.0953 H         1 UNK         0.0771 
    128 H128       36.1110   31.4676    3.1517 H         1 UNK         0.0771 
    129 H129       36.7590   31.5227    4.7900 H         1 UNK         0.0771 
    130 H130       34.1358   28.7734    4.3212 H         1 UNK         0.2980 
    131 H131       31.6576   29.0489    2.8436 H         1 UNK         0.0545 
    132 H132       31.2767   28.0504    0.7112 H         1 UNK         0.3459 
    133 H133       32.5348   28.2189   -0.5050 H         1 UNK         0.3459 
    134 H134       31.7959   27.1995    4.3597 H         1 UNK         0.0616 
    135 H135       31.6792   26.5778    2.7395 H         1 UNK         0.0616 
    136 H136       33.4114   25.1882    1.5668 H         1 UNK         0.0634 
    137 H137       34.6160   24.2778    2.4428 H         1 UNK         0.0634 
@<TRIPOS>BOND
     1    1    2 1    
     2    1   72 1    
     3    1   73 1    
     4    1   74 1    
     5    2    3 2    
     6    2    4 am   BACKBONE|DICT|INTERRES
     7    4    5 1    
     8    4   75 1    
     9    5    6 1    
    10    5   35 1    
    11    5   76 1    
    12    6    7 1    
    13    6   77 1    
    14    6   78 1    
    15    7    8 1    
    16    8    9 1    
    17    8   79 1    
    18    8   80 1    
    19    9   10 ar   
    20    9   14 ar   
    21   10   11 ar   
    22   10   81 1    
    23   11   12 ar   
    24   11   71 1    
    25   12   13 ar   
    26   12   82 1    
    27   13   14 ar   
    28   13   15 1    
    29   14   83 1    
    30   15   16 1    
    31   15   84 1    
    32   15   85 1    
    33   16   17 1    
    34   17   18 1    
    35   17   86 1    
    36   17   87 1    
    37   18   19 1    
    38   18   37 1    
    39   18   88 1    
    40   19   20 am   BACKBONE|DICT|INTERRES
    41   19   89 1    
    42   20   21 2    
    43   20   22 1    
    44   22   23 1    
    45   22   24 1    
    46   22   90 1    
    47   23   91 1    
    48   23   92 1    
    49   23   93 1    
    50   24   25 am   BACKBONE|DICT|INTERRES
    51   24   94 1    
    52   25   26 2    
    53   25   27 1    
    54   27   28 1    
    55   27   29 1    
    56   27   95 1    
    57   28   96 1    
    58   28   97 1    
    59   28   98 1    
    60   29   30 am   BACKBONE|DICT|INTERRES
    61   29   99 1    
    62   30   31 2    
    63   30   32 1    
    64   32   33 1    
    65   32   34 1    
    66   32  100 1    
    67   33  101 1    
    68   33  102 1    
    69   33  103 1    
    70   34   35 am   BACKBONE|DICT|INTERRES
    71   34  104 1    
    72   35   36 2    
    73   37   38 2    
    74   37   39 am   BACKBONE|DICT|INTERRES
    75   39   40 1    
    76   39  105 1    
    77   40   41 1    
    78   40   42 1    
    79   40  106 1    
    80   41  107 1    
    81   41  108 1    
    82   41  109 1    
    83   42   43 2    
    84   42   44 am   BACKBONE|DICT|INTERRES
    85   44   45 1    
    86   44  110 1    
    87   45   46 1    
    88   45   47 1    
    89   45  111 1    
    90   46  112 1    
    91   46  113 1    
    92   46  114 1    
    93   47   48 2    
    94   47   49 am   BACKBONE|DICT|INTERRES
    95   49   50 1    
    96   49  115 1    
    97   50   51 1    
    98   50   52 1    
    99   50  116 1    
   100   51  117 1    
   101   51  118 1    
   102   51  119 1    
   103   52   53 2    
   104   52   54 am   BACKBONE|DICT|INTERRES
   105   54   55 1    
   106   54  120 1    
   107   55   56 1    
   108   55   57 1    
   109   55  121 1    
   110   56  122 1    
   111   56  123 1    
   112   56  124 1    
   113   57   58 2    
   114   57   59 am   BACKBONE|DICT|INTERRES
   115   59   60 1    
   116   59  125 1    
   117   60   61 1    
   118   60   62 1    
   119   60  126 1    
   120   61  127 1    
   121   61  128 1    
   122   61  129 1    
   123   62   63 2    
   124   62   64 am   BACKBONE|DICT|INTERRES
   125   64   65 1    
   126   64  130 1    
   127   65   66 1    
   128   65   69 1    
   129   65  131 1    
   130   66   67 am   BACKBONE|DICT|INTERRES
   131   66   68 2    
   132   67  132 1    
   133   67  133 1    
   134   69   70 1    
   135   69  134 1    
   136   69  135 1    
   137   70   71 1    
   138   71  136 1    
   139   71  137 1    
@<TRIPOS>SUBSTRUCTURE
     1 UNK         1 GROUP             0       ****    0 ROOT    
