@<TRIPOS>MOLECULE
3R136
137   139    1
SMALL
USER_CHARGES


@<TRIPOS>ATOM
      1 CA         29.9174   25.1142    3.3202 C.3       0 UNK        -0.1979 
      2 C          29.7039   23.6671    2.9066 C.2       0 UNK         0.4864 
      3 O          29.1104   22.8990    3.6645 O.2       0 UNK        -0.5359 
      4 N          30.1762   23.2893    1.7102 N.am      1 UNK        -0.4318 
      5 CA         30.0507   21.9376    1.1437 C.3       1 UNK         0.0824 
      6 C6         30.9273   21.7566   -0.1189 C.3       12 UNK        -0.0944 
      7 S7         32.7084   21.8269    0.2572 S.3       12 UNK        -0.2672 
      8 C8         33.2453   23.2758   -0.7039 C.3       12 UNK         0.0333 
      9 C9         32.9569   24.5849    0.0167 C.ar      12 UNK        -0.0807 
     10 C10        33.6803   24.9121    1.1685 C.ar      12 UNK        -0.0894 
     11 C11        33.4854   26.1390    1.8074 C.ar      12 UNK        -0.0804 
     12 C12        32.5572   27.0390    1.2815 C.ar      12 UNK        -0.0824 
     13 C13        31.8183   26.7251    0.1374 C.ar      12 UNK        -0.0762 
     14 C14        32.0181   25.4911   -0.4910 C.ar      12 UNK        -0.0782 
     15 C15        30.8570   27.7552   -0.4419 C.3       12 UNK         0.0230 
     16 S16        29.6433   28.3315    0.7889 S.3       12 UNK        -0.2608 
     17 C17        28.2088   27.2474    0.4772 C.3       12 UNK        -0.0989 
     18 CA         27.0097   28.0522   -0.0853 C.3       5 UNK         0.0716 
     19 N          25.9685   27.1771   -0.6204 N.am      5 UNK        -0.4135 
     20 C          25.0209   27.5759   -1.4839 C.2       4 UNK         0.5031 
     21 O          24.9992   28.6956   -1.9976 O.2       4 UNK        -0.5229 
     22 CA         23.9073   26.5745   -1.8511 C.3       4 UNK         0.0329 
     23 CB         24.2042   25.9170   -3.2088 C.3       4 UNK        -0.2001 
     24 N          23.7101   25.5278   -0.8484 N.am      4 UNK        -0.4303 
     25 C          23.2321   25.7214    0.3891 C.2       3 UNK         0.5044 
     26 O          22.7622   26.7905    0.7792 O.2       3 UNK        -0.5152 
     27 CA         23.3079   24.5300    1.3662 C.3       3 UNK         0.0319 
     28 CB         21.9097   23.9320    1.5937 C.3       3 UNK        -0.2001 
     29 N          24.2267   23.4561    0.9605 N.am      3 UNK        -0.4354 
     30 C          25.5491   23.5847    0.7842 C.2       2 UNK         0.4964 
     31 O          26.1636   24.6482    0.9065 O.2       2 UNK        -0.5047 
     32 CA         26.2944   22.3298    0.3243 C.3       2 UNK         0.0288 
     33 CB         26.0808   22.0844   -1.1815 C.3       2 UNK        -0.2113 
     34 N          27.7152   22.5111    0.5964 N.am      2 UNK        -0.4145 
     35 C          28.5938   21.5302    0.8307 C.2       1 UNK         0.5006 
     36 O          28.2992   20.3334    0.8011 O.2       1 UNK        -0.5103 
     37 C          26.3939   28.9774    0.9836 C.2       5 UNK         0.5055 
     38 O          25.8458   28.4805    1.9705 O.2       5 UNK        -0.5220 
     39 N          26.5075   30.2958    0.7763 N.am      6 UNK        -0.4450 
     40 CA         26.1070   31.3115    1.7514 C.3       6 UNK         0.0367 
     41 CB         25.8727   32.6553    1.0403 C.3       6 UNK        -0.1929 
     42 C          27.1526   31.4512    2.8696 C.2       6 UNK         0.5070 
     43 O          26.7955   31.3925    4.0461 O.2       6 UNK        -0.5237 
     44 N          28.4200   31.6180    2.4736 N.am      7 UNK        -0.4739 
     45 CA         29.6013   31.7630    3.3216 C.3       7 UNK         0.0276 
     46 CB         29.5241   33.0555    4.1632 C.3       7 UNK        -0.1927 
     47 C          30.8399   31.7982    2.4158 C.2       7 UNK         0.5013 
     48 O          30.7130   32.0488    1.2135 O.2       7 UNK        -0.5193 
     49 N          32.0121   31.5888    3.0196 N.am      8 UNK        -0.4253 
     50 CA         33.3391   31.7184    2.4202 C.3       8 UNK         0.0242 
     51 CB         33.6352   30.5446    1.4621 C.3       8 UNK        -0.2000 
     52 C          34.3566   31.7958    3.5690 C.2       8 UNK         0.4948 
     53 O          33.9572   31.9700    4.7250 O.2       8 UNK        -0.5275 
     54 N          35.6483   31.6278    3.2535 N.am      9 UNK        -0.4246 
     55 CA         36.7225   31.4650    4.2378 C.3       9 UNK         0.0261 
     56 CB         38.0724   31.3489    3.5115 C.3       9 UNK        -0.1959 
     57 C          36.4654   30.2289    5.1178 C.2       9 UNK         0.5033 
     58 O          36.2425   29.1430    4.5775 O.2       9 UNK        -0.5390 
     59 N          36.4337   30.4344    6.4412 N.am      10 UNK        -0.4215 
     60 CA         36.0656   29.4895    7.5083 C.3       10 UNK         0.0240 
     61 CB         36.9889   28.2547    7.5273 C.3       10 UNK        -0.1982 
     62 C          34.5801   29.0729    7.5130 C.2       10 UNK         0.4970 
     63 O          33.9833   29.0191    8.5890 O.2       10 UNK        -0.4916 
     64 N          34.0114   28.7876    6.3363 N.am      11 UNK        -0.4279 
     65 CA         32.6115   28.3758    6.1462 C.3       11 UNK         0.1003 
     66 C          31.5591   29.4943    6.3928 C.2       11 UNK         0.5709 
     67 N          31.9105   30.7733    6.3354 N.am      11 UNK        -0.7358 
     68 O          30.3973   29.1921    6.6515 O.2       11 UNK        -0.4999 
     69 C69        32.3932   27.7092    4.7648 C.3       12 UNK        -0.0954 
     70 S70        33.3777   26.1822    4.5770 S.3       12 UNK        -0.2268 
     71 C71        34.2997   26.5013    3.0421 C.3       12 UNK         0.0203 
     72 H72        28.9586   25.6054    3.4832 H         1 UNK         0.0888 
     73 H73        30.4832   25.1535    4.2500 H         1 UNK         0.0888 
     74 H74        30.4629   25.6784    2.5658 H         1 UNK         0.0888 
     75 H75        30.7049   23.9478    1.1548 H         1 UNK         0.3017 
     76 H76        30.4037   21.2366    1.9035 H         1 UNK         0.0873 
     77 H77        30.7461   20.7825   -0.5784 H         1 UNK         0.0745 
     78 H78        30.6683   22.4983   -0.8767 H         1 UNK         0.0745 
     79 H79        32.7868   23.2566   -1.6939 H         1 UNK         0.0705 
     80 H80        34.3207   23.1992   -0.8709 H         1 UNK         0.0705 
     81 H81        34.4076   24.2129    1.5586 H         1 UNK         0.1334 
     82 H82        32.3970   27.9906    1.7630 H         1 UNK         0.1417 
     83 H83        31.4690   25.2505   -1.3915 H         1 UNK         0.1562 
     84 H84        30.3462   27.3751   -1.3278 H         1 UNK         0.0748 
     85 H85        31.4393   28.6152   -0.7753 H         1 UNK         0.0748 
     86 H86        27.9401   26.7376    1.4045 H         1 UNK         0.0940 
     87 H87        28.4948   26.4587   -0.2200 H         1 UNK         0.0940 
     88 H88        27.3802   28.6622   -0.9127 H         1 UNK         0.0703 
     89 H89        25.8971   26.2614   -0.1874 H         1 UNK         0.3081 
     90 H90        22.9760   27.1383   -1.9382 H         1 UNK         0.0719 
     91 H91        24.3280   26.6704   -3.9882 H         1 UNK         0.0809 
     92 H92        25.1198   25.3248   -3.1802 H         1 UNK         0.0809 
     93 H93        23.3894   25.2631   -3.5206 H         1 UNK         0.0809 
     94 H94        24.0505   24.6070   -1.0812 H         1 UNK         0.2990 
     95 H95        23.6698   24.9255    2.3176 H         1 UNK         0.0690 
     96 H96        21.9287   23.1550    2.3583 H         1 UNK         0.0788 
     97 H97        21.5035   23.4966    0.6798 H         1 UNK         0.0788 
     98 H98        21.2072   24.6958    1.9305 H         1 UNK         0.0788 
     99 H99        23.8085   22.5479    0.8139 H         1 UNK         0.2993 
    100 H100       25.9199   21.4785    0.8977 H         1 UNK         0.0949 
    101 H101       26.6078   21.1902   -1.5152 H         1 UNK         0.0767 
    102 H102       25.0252   21.9390   -1.4141 H         1 UNK         0.0767 
    103 H103       26.4373   22.9235   -1.7806 H         1 UNK         0.0767 
    104 H104       28.0017   23.4759    0.7023 H         1 UNK         0.3013 
    105 H105       26.9593   30.6203   -0.0667 H         1 UNK         0.3121 
    106 H106       25.1630   31.0074    2.2097 H         1 UNK         0.0774 
    107 H107       25.0798   32.5755    0.2964 H         1 UNK         0.0815 
    108 H108       25.5701   33.4235    1.7533 H         1 UNK         0.0815 
    109 H109       26.7704   33.0151    0.5362 H         1 UNK         0.0815 
    110 H110       28.6385   31.6383    1.4845 H         1 UNK         0.2987 
    111 H111       29.6694   30.8921    3.9774 H         1 UNK         0.0949 
    112 H112       28.7013   33.0265    4.8769 H         1 UNK         0.0806 
    113 H113       30.4358   33.2074    4.7421 H         1 UNK         0.0806 
    114 H114       29.3891   33.9354    3.5330 H         1 UNK         0.0806 
    115 H115       32.0411   31.4637    4.0252 H         1 UNK         0.3010 
    116 H116       33.3776   32.6600    1.8688 H         1 UNK         0.0829 
    117 H117       33.8703   29.6346    2.0123 H         1 UNK         0.0813 
    118 H118       34.4915   30.7655    0.8246 H         1 UNK         0.0813 
    119 H119       32.7973   30.3324    0.7982 H         1 UNK         0.0813 
    120 H120       35.8935   31.4634    2.2884 H         1 UNK         0.3038 
    121 H121       36.7417   32.3591    4.8646 H         1 UNK         0.0769 
    122 H122       38.2786   32.2345    2.9100 H         1 UNK         0.0811 
    123 H123       38.1033   30.4796    2.8530 H         1 UNK         0.0811 
    124 H124       38.8907   31.2451    4.2253 H         1 UNK         0.0811 
    125 H125       36.5908   31.3809    6.7606 H         1 UNK         0.3204 
    126 H126       36.2343   30.0306    8.4409 H         1 UNK         0.0748 
    127 H127       38.0383   28.5448    7.5801 H         1 UNK         0.0771 
    128 H128       36.7810   27.6294    8.3965 H         1 UNK         0.0771 
    129 H129       36.8574   27.6295    6.6436 H         1 UNK         0.0771 
    130 H130       34.5980   28.8288    5.5082 H         1 UNK         0.2980 
    131 H131       32.4053   27.6165    6.9033 H         1 UNK         0.0545 
    132 H132       31.2221   31.4747    6.5541 H         1 UNK         0.3459 
    133 H133       32.8536   31.0519    6.0874 H         1 UNK         0.3459 
    134 H134       32.6370   28.4184    3.9736 H         1 UNK         0.0616 
    135 H135       31.3448   27.4421    4.6226 H         1 UNK         0.0616 
    136 H136       35.2187   25.9140    3.0665 H         1 UNK         0.0634 
    137 H137       34.6150   27.5443    3.0016 H         1 UNK         0.0634 
@<TRIPOS>BOND
     1    1    2 1    
     2    1   72 1    
     3    1   73 1    
     4    1   74 1    
     5    2    3 2    
     6    2    4 am   BACKBONE|DICT|INTERRES
     7    4    5 1    
     8    4   75 1    
     9    5    6 1    
    10    5   35 1    
    11    5   76 1    
    12    6    7 1    
    13    6   77 1    
    14    6   78 1    
    15    7    8 1    
    16    8    9 1    
    17    8   79 1    
    18    8   80 1    
    19    9   10 ar   
    20    9   14 ar   
    21   10   11 ar   
    22   10   81 1    
    23   11   12 ar   
    24   11   71 1    
    25   12   13 ar   
    26   12   82 1    
    27   13   14 ar   
    28   13   15 1    
    29   14   83 1    
    30   15   16 1    
    31   15   84 1    
    32   15   85 1    
    33   16   17 1    
    34   17   18 1    
    35   17   86 1    
    36   17   87 1    
    37   18   19 1    
    38   18   37 1    
    39   18   88 1    
    40   19   20 am   BACKBONE|DICT|INTERRES
    41   19   89 1    
    42   20   21 2    
    43   20   22 1    
    44   22   23 1    
    45   22   24 1    
    46   22   90 1    
    47   23   91 1    
    48   23   92 1    
    49   23   93 1    
    50   24   25 am   BACKBONE|DICT|INTERRES
    51   24   94 1    
    52   25   26 2    
    53   25   27 1    
    54   27   28 1    
    55   27   29 1    
    56   27   95 1    
    57   28   96 1    
    58   28   97 1    
    59   28   98 1    
    60   29   30 am   BACKBONE|DICT|INTERRES
    61   29   99 1    
    62   30   31 2    
    63   30   32 1    
    64   32   33 1    
    65   32   34 1    
    66   32  100 1    
    67   33  101 1    
    68   33  102 1    
    69   33  103 1    
    70   34   35 am   BACKBONE|DICT|INTERRES
    71   34  104 1    
    72   35   36 2    
    73   37   38 2    
    74   37   39 am   BACKBONE|DICT|INTERRES
    75   39   40 1    
    76   39  105 1    
    77   40   41 1    
    78   40   42 1    
    79   40  106 1    
    80   41  107 1    
    81   41  108 1    
    82   41  109 1    
    83   42   43 2    
    84   42   44 am   BACKBONE|DICT|INTERRES
    85   44   45 1    
    86   44  110 1    
    87   45   46 1    
    88   45   47 1    
    89   45  111 1    
    90   46  112 1    
    91   46  113 1    
    92   46  114 1    
    93   47   48 2    
    94   47   49 am   BACKBONE|DICT|INTERRES
    95   49   50 1    
    96   49  115 1    
    97   50   51 1    
    98   50   52 1    
    99   50  116 1    
   100   51  117 1    
   101   51  118 1    
   102   51  119 1    
   103   52   53 2    
   104   52   54 am   BACKBONE|DICT|INTERRES
   105   54   55 1    
   106   54  120 1    
   107   55   56 1    
   108   55   57 1    
   109   55  121 1    
   110   56  122 1    
   111   56  123 1    
   112   56  124 1    
   113   57   58 2    
   114   57   59 am   BACKBONE|DICT|INTERRES
   115   59   60 1    
   116   59  125 1    
   117   60   61 1    
   118   60   62 1    
   119   60  126 1    
   120   61  127 1    
   121   61  128 1    
   122   61  129 1    
   123   62   63 2    
   124   62   64 am   BACKBONE|DICT|INTERRES
   125   64   65 1    
   126   64  130 1    
   127   65   66 1    
   128   65   69 1    
   129   65  131 1    
   130   66   67 am   BACKBONE|DICT|INTERRES
   131   66   68 2    
   132   67  132 1    
   133   67  133 1    
   134   69   70 1    
   135   69  134 1    
   136   69  135 1    
   137   70   71 1    
   138   71  136 1    
   139   71  137 1    
@<TRIPOS>SUBSTRUCTURE
     1 UNK         1 GROUP             0       ****    0 ROOT    
