@<TRIPOS>MOLECULE
3R136
137   139    1
SMALL
USER_CHARGES


@<TRIPOS>ATOM
      1 CA         30.1938   19.5757    1.6781 C.3       0 UNK        -0.1979 
      2 C          29.4318   20.7285    2.3154 C.2       0 UNK         0.4864 
      3 O          28.4153   20.4938    2.9701 O.2       0 UNK        -0.5359 
      4 N          29.9213   21.9621    2.1211 N.am      1 UNK        -0.4318 
      5 CA         29.3721   23.2247    2.6391 C.3       1 UNK         0.0824 
      6 C6         29.4719   23.3706    4.1844 C.3       12 UNK        -0.0944 
      7 S7         31.1475   23.0903    4.8529 S.3       12 UNK        -0.2672 
      8 C8         31.8368   24.7744    4.8908 C.3       12 UNK         0.0333 
      9 C9         32.4193   25.1657    3.5417 C.ar      12 UNK        -0.0807 
     10 C10        33.6949   24.7226    3.1811 C.ar      12 UNK        -0.0894 
     11 C11        34.2531   25.0908    1.9537 C.ar      12 UNK        -0.0804 
     12 C12        33.5110   25.8756    1.0678 C.ar      12 UNK        -0.0824 
     13 C13        32.2451   26.3435    1.4281 C.ar      12 UNK        -0.0762 
     14 C14        31.7054   25.9919    2.6686 C.ar      12 UNK        -0.0782 
     15 C15        31.4992   27.2921    0.5086 C.3       12 UNK         0.0230 
     16 S16        30.1527   26.4732   -0.4076 S.3       12 UNK        -0.2608 
     17 C17        29.6926   27.8355   -1.5457 C.3       12 UNK        -0.0989 
     18 CA         28.4928   28.7367   -1.1339 C.3       5 UNK         0.0716 
     19 N          27.2026   28.1610   -1.5308 N.am      5 UNK        -0.4135 
     20 C          26.3333   28.7606   -2.3609 C.2       4 UNK         0.5031 
     21 O          26.5252   29.8642   -2.8736 O.2       4 UNK        -0.5229 
     22 CA         25.0263   28.0197   -2.7036 C.3       4 UNK         0.0329 
     23 CB         25.1881   27.2326   -4.0144 C.3       4 UNK        -0.2001 
     24 N          24.5657   27.1111   -1.6556 N.am      4 UNK        -0.4303 
     25 C          24.1311   27.4845   -0.4443 C.2       3 UNK         0.5044 
     26 O          23.9920   28.6563   -0.0943 O.2       3 UNK        -0.5152 
     27 CA         23.8369   26.3556    0.5623 C.3       3 UNK         0.0319 
     28 CB         22.3354   26.0273    0.5727 C.3       3 UNK        -0.2001 
     29 N          24.6008   25.1185    0.3426 N.am      3 UNK        -0.4354 
     30 C          25.9372   25.0264    0.2859 C.2       2 UNK         0.4964 
     31 O          26.6938   25.9993    0.3262 O.2       2 UNK        -0.5047 
     32 CA         26.5190   23.6199    0.0756 C.3       2 UNK         0.0288 
     33 CB         26.7406   23.3613   -1.4236 C.3       2 UNK        -0.2113 
     34 N          27.7867   23.4271    0.7827 N.am      2 UNK        -0.4145 
     35 C          27.9428   23.4857    2.1137 C.2       1 UNK         0.5006 
     36 O          27.0170   23.6964    2.9018 O.2       1 UNK        -0.5103 
     37 C          28.5204   29.1510    0.3509 C.2       5 UNK         0.5055 
     38 O          29.3621   29.9747    0.7093 O.2       5 UNK        -0.5220 
     39 N          27.6295   28.5859    1.1834 N.am      6 UNK        -0.4450 
     40 CA         27.5849   28.6884    2.6509 C.3       6 UNK         0.0367 
     41 CB         26.3317   27.9631    3.1657 C.3       6 UNK        -0.1929 
     42 C          27.6661   30.1013    3.2615 C.2       6 UNK         0.5070 
     43 O          28.0621   30.2241    4.4203 O.2       6 UNK        -0.5237 
     44 N          27.3533   31.1453    2.4814 N.am      7 UNK        -0.4739 
     45 CA         27.5950   32.5539    2.8180 C.3       7 UNK         0.0276 
     46 CB         27.0297   33.4407    1.6972 C.3       7 UNK        -0.1927 
     47 C          29.0803   32.8919    3.0760 C.2       7 UNK         0.5013 
     48 O          29.3590   33.8458    3.8029 O.2       7 UNK        -0.5193 
     49 N          30.0017   32.0942    2.5139 N.am      8 UNK        -0.4253 
     50 CA         31.4430   32.1465    2.7771 C.3       8 UNK         0.0242 
     51 CB         32.1866   31.4586    1.6188 C.3       8 UNK        -0.2000 
     52 C          31.8529   31.5155    4.1245 C.2       8 UNK         0.4948 
     53 O          33.0335   31.5852    4.4708 O.2       8 UNK        -0.5275 
     54 N          30.9046   30.9040    4.8528 N.am      9 UNK        -0.4246 
     55 CA         31.0867   30.2013    6.1258 C.3       9 UNK         0.0261 
     56 CB         31.4611   31.1914    7.2537 C.3       9 UNK        -0.1959 
     57 C          32.0456   29.0054    5.9726 C.2       9 UNK         0.5033 
     58 O          31.8724   28.2157    5.0425 O.2       9 UNK        -0.5390 
     59 N          33.0289   28.8769    6.8719 N.am      10 UNK        -0.4215 
     60 CA         34.0291   27.8082    6.8926 C.3       10 UNK         0.0240 
     61 CB         34.6118   27.7020    8.3148 C.3       10 UNK        -0.1982 
     62 C          35.1170   28.0040    5.8173 C.2       10 UNK         0.4970 
     63 O          36.2842   28.2120    6.1539 O.2       10 UNK        -0.4916 
     64 N          34.7104   27.9222    4.5454 N.am      11 UNK        -0.4279 
     65 CA         35.5739   27.9907    3.3556 C.3       11 UNK         0.1003 
     66 C          36.2300   29.3830    3.1006 C.2       11 UNK         0.5709 
     67 N          35.6554   30.4822    3.5744 N.am      11 UNK        -0.7358 
     68 O          37.2651   29.4834    2.4459 O.2       11 UNK        -0.4999 
     69 C69        36.5786   26.7946    3.2934 C.3       12 UNK        -0.0954 
     70 S70        36.7971   26.1374    1.6028 S.3       12 UNK        -0.2268 
     71 C71        35.6805   24.6933    1.6079 C.3       12 UNK         0.0203 
     72 H72        31.0723   19.9184    1.1317 H         1 UNK         0.0888 
     73 H73        30.5245   18.8761    2.4453 H         1 UNK         0.0888 
     74 H74        29.5495   19.0392    0.9820 H         1 UNK         0.0888 
     75 H75        30.7680   22.0631    1.5790 H         1 UNK         0.3017 
     76 H76        29.9834   24.0090    2.1960 H         1 UNK         0.0873 
     77 H77        29.1281   24.3585    4.4963 H         1 UNK         0.0745 
     78 H78        28.8057   22.6572    4.6729 H         1 UNK         0.0745 
     79 H79        32.6240   24.8087    5.6449 H         1 UNK         0.0705 
     80 H80        31.0794   25.4900    5.2145 H         1 UNK         0.0705 
     81 H81        34.2611   24.1094    3.8689 H         1 UNK         0.1334 
     82 H82        33.9459   26.1663    0.1211 H         1 UNK         0.1417 
     83 H83        30.7343   26.3704    2.9577 H         1 UNK         0.1562 
     84 H84        32.1951   27.7492   -0.1966 H         1 UNK         0.0748 
     85 H85        31.0965   28.1070    1.1083 H         1 UNK         0.0748 
     86 H86        29.5033   27.3994   -2.5279 H         1 UNK         0.0940 
     87 H87        30.5689   28.4685   -1.6951 H         1 UNK         0.0940 
     88 H88        28.6352   29.6748   -1.6742 H         1 UNK         0.0703 
     89 H89        26.9713   27.2604   -1.1221 H         1 UNK         0.3081 
     90 H90        24.2520   28.7755   -2.8525 H         1 UNK         0.0719 
     91 H91        25.9360   26.4437   -3.9232 H         1 UNK         0.0809 
     92 H92        24.2484   26.7723   -4.3205 H         1 UNK         0.0809 
     93 H93        25.5042   27.8885   -4.8269 H         1 UNK         0.0809 
     94 H94        24.6340   26.1227   -1.8481 H         1 UNK         0.2990 
     95 H95        24.1076   26.7285    1.5512 H         1 UNK         0.0690 
     96 H96        22.0902   25.3104    1.3565 H         1 UNK         0.0788 
     97 H97        22.0062   25.6110   -0.3803 H         1 UNK         0.0788 
     98 H98        21.7408   26.9228    0.7599 H         1 UNK         0.0788 
     99 H99        24.0575   24.2695    0.2735 H         1 UNK         0.2993 
    100 H100       25.8104   22.8844    0.4624 H         1 UNK         0.0949 
    101 H101       27.1139   22.3525   -1.6018 H         1 UNK         0.0767 
    102 H102       25.8094   23.4625   -1.9828 H         1 UNK         0.0767 
    103 H103       27.4567   24.0649   -1.8516 H         1 UNK         0.0767 
    104 H104       28.6021   23.2699    0.2095 H         1 UNK         0.3013 
    105 H105       27.0485   27.8506    0.7944 H         1 UNK         0.3121 
    106 H106       28.4592   28.1481    3.0193 H         1 UNK         0.0774 
    107 H107       26.2708   28.0067    4.2542 H         1 UNK         0.0815 
    108 H108       25.4202   28.4120    2.7696 H         1 UNK         0.0815 
    109 H109       26.3402   26.9084    2.8904 H         1 UNK         0.0815 
    110 H110       27.0503   30.9491    1.5384 H         1 UNK         0.2987 
    111 H111       27.0504   32.7710    3.7394 H         1 UNK         0.0949 
    112 H112       27.5227   33.2478    0.7434 H         1 UNK         0.0806 
    113 H113       25.9601   33.2786    1.5628 H         1 UNK         0.0806 
    114 H114       27.1688   34.4978    1.9282 H         1 UNK         0.0806 
    115 H115       29.6855   31.3392    1.9062 H         1 UNK         0.3010 
    116 H116       31.7502   33.1939    2.8052 H         1 UNK         0.0829 
    117 H117       31.9230   31.9001    0.6576 H         1 UNK         0.0813 
    118 H118       33.2672   31.5540    1.7341 H         1 UNK         0.0813 
    119 H119       31.9583   30.3934    1.5725 H         1 UNK         0.0813 
    120 H120       29.9635   30.8517    4.4764 H         1 UNK         0.3038 
    121 H121       30.1144   29.7734    6.3740 H         1 UNK         0.0769 
    122 H122       32.4448   31.6381    7.1037 H         1 UNK         0.0811 
    123 H123       31.4582   30.7034    8.2291 H         1 UNK         0.0811 
    124 H124       30.7388   32.0060    7.3089 H         1 UNK         0.0811 
    125 H125       33.1234   29.5945    7.5757 H         1 UNK         0.3204 
    126 H126       33.5291   26.8628    6.6734 H         1 UNK         0.0748 
    127 H127       35.3418   26.8938    8.3784 H         1 UNK         0.0771 
    128 H128       35.1155   28.6213    8.6166 H         1 UNK         0.0771 
    129 H129       33.8332   27.4895    9.0478 H         1 UNK         0.0771 
    130 H130       33.7146   27.8143    4.3754 H         1 UNK         0.2980 
    131 H131       34.8728   27.8815    2.5292 H         1 UNK         0.0545 
    132 H132       34.7737   30.4586    4.0712 H         1 UNK         0.3459 
    133 H133       36.0933   31.3711    3.3957 H         1 UNK         0.3459 
    134 H134       37.5538   27.0777    3.6933 H         1 UNK         0.0616 
    135 H135       36.2429   25.9724    3.9267 H         1 UNK         0.0616 
    136 H136       36.0605   23.9503    2.3109 H         1 UNK         0.0634 
    137 H137       35.6987   24.2253    0.6228 H         1 UNK         0.0634 
@<TRIPOS>BOND
     1    1    2 1    
     2    1   72 1    
     3    1   73 1    
     4    1   74 1    
     5    2    3 2    
     6    2    4 am   BACKBONE|DICT|INTERRES
     7    4    5 1    
     8    4   75 1    
     9    5    6 1    
    10    5   35 1    
    11    5   76 1    
    12    6    7 1    
    13    6   77 1    
    14    6   78 1    
    15    7    8 1    
    16    8    9 1    
    17    8   79 1    
    18    8   80 1    
    19    9   10 ar   
    20    9   14 ar   
    21   10   11 ar   
    22   10   81 1    
    23   11   12 ar   
    24   11   71 1    
    25   12   13 ar   
    26   12   82 1    
    27   13   14 ar   
    28   13   15 1    
    29   14   83 1    
    30   15   16 1    
    31   15   84 1    
    32   15   85 1    
    33   16   17 1    
    34   17   18 1    
    35   17   86 1    
    36   17   87 1    
    37   18   19 1    
    38   18   37 1    
    39   18   88 1    
    40   19   20 am   BACKBONE|DICT|INTERRES
    41   19   89 1    
    42   20   21 2    
    43   20   22 1    
    44   22   23 1    
    45   22   24 1    
    46   22   90 1    
    47   23   91 1    
    48   23   92 1    
    49   23   93 1    
    50   24   25 am   BACKBONE|DICT|INTERRES
    51   24   94 1    
    52   25   26 2    
    53   25   27 1    
    54   27   28 1    
    55   27   29 1    
    56   27   95 1    
    57   28   96 1    
    58   28   97 1    
    59   28   98 1    
    60   29   30 am   BACKBONE|DICT|INTERRES
    61   29   99 1    
    62   30   31 2    
    63   30   32 1    
    64   32   33 1    
    65   32   34 1    
    66   32  100 1    
    67   33  101 1    
    68   33  102 1    
    69   33  103 1    
    70   34   35 am   BACKBONE|DICT|INTERRES
    71   34  104 1    
    72   35   36 2    
    73   37   38 2    
    74   37   39 am   BACKBONE|DICT|INTERRES
    75   39   40 1    
    76   39  105 1    
    77   40   41 1    
    78   40   42 1    
    79   40  106 1    
    80   41  107 1    
    81   41  108 1    
    82   41  109 1    
    83   42   43 2    
    84   42   44 am   BACKBONE|DICT|INTERRES
    85   44   45 1    
    86   44  110 1    
    87   45   46 1    
    88   45   47 1    
    89   45  111 1    
    90   46  112 1    
    91   46  113 1    
    92   46  114 1    
    93   47   48 2    
    94   47   49 am   BACKBONE|DICT|INTERRES
    95   49   50 1    
    96   49  115 1    
    97   50   51 1    
    98   50   52 1    
    99   50  116 1    
   100   51  117 1    
   101   51  118 1    
   102   51  119 1    
   103   52   53 2    
   104   52   54 am   BACKBONE|DICT|INTERRES
   105   54   55 1    
   106   54  120 1    
   107   55   56 1    
   108   55   57 1    
   109   55  121 1    
   110   56  122 1    
   111   56  123 1    
   112   56  124 1    
   113   57   58 2    
   114   57   59 am   BACKBONE|DICT|INTERRES
   115   59   60 1    
   116   59  125 1    
   117   60   61 1    
   118   60   62 1    
   119   60  126 1    
   120   61  127 1    
   121   61  128 1    
   122   61  129 1    
   123   62   63 2    
   124   62   64 am   BACKBONE|DICT|INTERRES
   125   64   65 1    
   126   64  130 1    
   127   65   66 1    
   128   65   69 1    
   129   65  131 1    
   130   66   67 am   BACKBONE|DICT|INTERRES
   131   66   68 2    
   132   67  132 1    
   133   67  133 1    
   134   69   70 1    
   135   69  134 1    
   136   69  135 1    
   137   70   71 1    
   138   71  136 1    
   139   71  137 1    
@<TRIPOS>SUBSTRUCTURE
     1 UNK         1 GROUP             0       ****    0 ROOT    
