@<TRIPOS>MOLECULE
3R136
137   139    1
SMALL
USER_CHARGES


@<TRIPOS>ATOM
      1 CA         30.5299   18.8874    2.3826 C.3       0 UNK        -0.1979 
      2 C          29.4212   19.9188    2.5322 C.2       0 UNK         0.4864 
      3 O          28.3245   19.5713    2.9722 O.2       0 UNK        -0.5359 
      4 N          29.7044   21.1769    2.1607 N.am      1 UNK        -0.4318 
      5 CA         28.8090   22.3441    2.2457 C.3       1 UNK         0.0824 
      6 C6         28.4329   22.7450    3.7032 C.3       12 UNK        -0.0944 
      7 S7         29.8393   22.8100    4.8676 S.3       12 UNK        -0.2672 
      8 C8         30.3005   24.5692    4.8385 C.3       12 UNK         0.0333 
      9 C9         31.2572   24.8791    3.6974 C.ar      12 UNK        -0.0807 
     10 C10        32.5869   24.4588    3.7752 C.ar      12 UNK        -0.0894 
     11 C11        33.4894   24.7689    2.7558 C.ar      12 UNK        -0.0804 
     12 C12        33.0497   25.5015    1.6499 C.ar      12 UNK        -0.0824 
     13 C13        31.7189   25.9214    1.5467 C.ar      12 UNK        -0.0762 
     14 C14        30.8266   25.6015    2.5811 C.ar      12 UNK        -0.0782 
     15 C15        31.3166   26.7497    0.3234 C.3       12 UNK         0.0230 
     16 S16        29.5301   26.7929   -0.0483 S.3       12 UNK        -0.2608 
     17 C17        28.9267   28.1418    1.0270 C.3       12 UNK        -0.0989 
     18 CA         27.9170   29.0632    0.2966 C.3       5 UNK         0.0716 
     19 N          26.7683   28.3096   -0.2058 N.am      5 UNK        -0.4135 
     20 C          25.8295   28.7621   -1.0429 C.2       4 UNK         0.5031 
     21 O          25.8203   29.9035   -1.5090 O.2       4 UNK        -0.5229 
     22 CA         24.7480   27.7424   -1.4588 C.3       4 UNK         0.0329 
     23 CB         23.6484   28.3689   -2.3371 C.3       4 UNK        -0.2001 
     24 N          25.3279   26.5964   -2.1684 N.am      4 UNK        -0.4303 
     25 C          25.9982   25.5895   -1.5931 C.2       3 UNK         0.5044 
     26 O          26.1732   25.4995   -0.3750 O.2       3 UNK        -0.5152 
     27 CA         26.6150   24.5512   -2.5452 C.3       3 UNK         0.0319 
     28 CB         27.8865   25.1063   -3.2094 C.3       3 UNK        -0.2001 
     29 N          26.9562   23.3161   -1.8387 N.am      3 UNK        -0.4354 
     30 C          26.0805   22.3519   -1.5283 C.2       2 UNK         0.4964 
     31 O          24.8975   22.3629   -1.8725 O.2       2 UNK        -0.5047 
     32 CA         26.6132   21.1618   -0.7117 C.3       2 UNK         0.0288 
     33 CB         27.0763   20.0318   -1.6462 C.3       2 UNK        -0.2113 
     34 N          27.7072   21.5091    0.2014 N.am      2 UNK        -0.4145 
     35 C          27.5553   22.1954    1.3455 C.2       1 UNK         0.5006 
     36 O          26.4756   22.6668    1.7091 O.2       1 UNK        -0.5103 
     37 C          27.4605   30.1977    1.2329 C.2       5 UNK         0.5055 
     38 O          26.6500   29.9576    2.1321 O.2       5 UNK        -0.5220 
     39 N          28.0222   31.3961    1.0337 N.am      6 UNK        -0.4450 
     40 CA         27.9089   32.5222    1.9623 C.3       6 UNK         0.0367 
     41 CB         28.3361   33.8098    1.2384 C.3       6 UNK        -0.1929 
     42 C          28.7975   32.2890    3.1938 C.2       6 UNK         0.5070 
     43 O          29.7978   31.5758    3.0931 O.2       6 UNK        -0.5237 
     44 N          28.4701   32.9408    4.3164 N.am      7 UNK        -0.4739 
     45 CA         29.2010   32.8282    5.5880 C.3       7 UNK         0.0276 
     46 CB         28.4698   33.6412    6.6683 C.3       7 UNK        -0.1927 
     47 C          30.6842   33.2427    5.5136 C.2       7 UNK         0.5013 
     48 O          31.4981   32.7053    6.2640 O.2       7 UNK        -0.5193 
     49 N          31.0075   34.1691    4.6008 N.am      8 UNK        -0.4253 
     50 CA         32.3749   34.5981    4.2990 C.3       8 UNK         0.0242 
     51 CB         32.3305   36.0083    3.6871 C.3       8 UNK        -0.2000 
     52 C          33.1235   33.6327    3.3592 C.2       8 UNK         0.4948 
     53 O          34.3547   33.6601    3.3412 O.2       8 UNK        -0.5275 
     54 N          32.3876   32.8248    2.5824 N.am      9 UNK        -0.4246 
     55 CA         32.9362   31.8615    1.6246 C.3       9 UNK         0.0261 
     56 CB         32.0175   31.7871    0.3929 C.3       9 UNK        -0.1959 
     57 C          33.1035   30.4673    2.2464 C.2       9 UNK         0.5033 
     58 O          34.0519   29.7643    1.8948 O.2       9 UNK        -0.5390 
     59 N          32.1762   30.0863    3.1357 N.am      10 UNK        -0.4215 
     60 CA         32.1603   28.8112    3.8494 C.3       10 UNK         0.0240 
     61 CB         30.8435   28.6902    4.6338 C.3       10 UNK        -0.1982 
     62 C          33.3688   28.6314    4.7816 C.2       10 UNK         0.4970 
     63 O          33.8202   29.5984    5.3993 O.2       10 UNK        -0.4916 
     64 N          33.8454   27.3857    4.8824 N.am      11 UNK        -0.4279 
     65 CA         34.9998   26.9934    5.7073 C.3       11 UNK         0.1003 
     66 C          34.7378   26.9914    7.2425 C.2       11 UNK         0.5709 
     67 N          33.4995   27.0994    7.7103 N.am      11 UNK        -0.7358 
     68 O          35.6805   26.8945    8.0248 O.2       11 UNK        -0.4999 
     69 C69        35.6039   25.6379    5.2520 C.3       12 UNK        -0.0954 
     70 S70        36.0423   25.6003    3.4793 S.3       12 UNK        -0.2268 
     71 C71        34.9360   24.3027    2.8390 C.3       12 UNK         0.0203 
     72 H72        30.7615   18.4444    3.3509 H         1 UNK         0.0888 
     73 H73        30.2134   18.0908    1.7098 H         1 UNK         0.0888 
     74 H74        31.4447   19.3253    1.9837 H         1 UNK         0.0888 
     75 H75        30.6337   21.3823    1.8209 H         1 UNK         0.3017 
     76 H76        29.3714   23.1758    1.8194 H         1 UNK         0.0873 
     77 H77        27.9219   23.7094    3.7108 H         1 UNK         0.0745 
     78 H78        27.7176   22.0296    4.1133 H         1 UNK         0.0745 
     79 H79        30.7875   24.8148    5.7835 H         1 UNK         0.0705 
     80 H80        29.4075   25.1942    4.7901 H         1 UNK         0.0705 
     81 H81        32.9147   23.8871    4.6329 H         1 UNK         0.1334 
     82 H82        33.7527   25.7497    0.8657 H         1 UNK         0.1417 
     83 H83        29.7964   25.9191    2.5357 H         1 UNK         0.1562 
     84 H84        31.8141   26.3373   -0.5558 H         1 UNK         0.0748 
     85 H85        31.6966   27.7662    0.4356 H         1 UNK         0.0748 
     86 H86        29.7764   28.7249    1.3887 H         1 UNK         0.0940 
     87 H87        28.4637   27.6992    1.9109 H         1 UNK         0.0940 
     88 H88        28.4186   29.5043   -0.5676 H         1 UNK         0.0703 
     89 H89        26.7103   27.3362    0.0783 H         1 UNK         0.3081 
     90 H90        24.2737   27.3839   -0.5424 H         1 UNK         0.0719 
     91 H91        24.0472   28.7424   -3.2811 H         1 UNK         0.0809 
     92 H92        22.8639   27.6472   -2.5658 H         1 UNK         0.0809 
     93 H93        23.1740   29.2091   -1.8282 H         1 UNK         0.0809 
     94 H94        25.2620   26.6173   -3.1762 H         1 UNK         0.2990 
     95 H95        25.8857   24.3252   -3.3262 H         1 UNK         0.0690 
     96 H96        28.2993   24.3962   -3.9263 H         1 UNK         0.0788 
     97 H97        28.6621   25.3279   -2.4764 H         1 UNK         0.0788 
     98 H98        27.6806   26.0288   -3.7537 H         1 UNK         0.0788 
     99 H99        27.8946   23.2470   -1.4748 H         1 UNK         0.2993 
    100 H100       25.7815   20.7848   -0.1118 H         1 UNK         0.0949 
    101 H101       26.2735   19.7299   -2.3207 H         1 UNK         0.0767 
    102 H102       27.9224   20.3375   -2.2630 H         1 UNK         0.0767 
    103 H103       27.3724   19.1469   -1.0821 H         1 UNK         0.0767 
    104 H104       28.6206   21.1387   -0.0173 H         1 UNK         0.3013 
    105 H105       28.6847   31.5027    0.2803 H         1 UNK         0.3121 
    106 H106       26.8697   32.6180    2.2843 H         1 UNK         0.0774 
    107 H107       28.2289   34.6800    1.8873 H         1 UNK         0.0815 
    108 H108       29.3777   33.7696    0.9165 H         1 UNK         0.0815 
    109 H109       27.7205   33.9907    0.3570 H         1 UNK         0.0815 
    110 H110       27.6454   33.5249    4.3187 H         1 UNK         0.2987 
    111 H111       29.1815   31.7760    5.8809 H         1 UNK         0.0949 
    112 H112       28.4254   34.7014    6.4159 H         1 UNK         0.0806 
    113 H113       27.4492   33.2856    6.8112 H         1 UNK         0.0806 
    114 H114       28.9768   33.5566    7.6308 H         1 UNK         0.0806 
    115 H115       30.2653   34.5708    4.0468 H         1 UNK         0.3010 
    116 H116       32.9408   34.6505    5.2319 H         1 UNK         0.0829 
    117 H117       31.8639   36.7216    4.3668 H         1 UNK         0.0813 
    118 H118       33.3367   36.3745    3.4776 H         1 UNK         0.0813 
    119 H119       31.7761   36.0254    2.7478 H         1 UNK         0.0813 
    120 H120       31.3843   32.8000    2.7169 H         1 UNK         0.3038 
    121 H121       33.9196   32.1983    1.2891 H         1 UNK         0.0769 
    122 H122       32.4276   31.1084   -0.3563 H         1 UNK         0.0811 
    123 H123       31.9078   32.7632   -0.0799 H         1 UNK         0.0811 
    124 H124       31.0229   31.4232    0.6498 H         1 UNK         0.0811 
    125 H125       31.3902   30.7094    3.3083 H         1 UNK         0.3204 
    126 H126       32.1935   28.0286    3.0946 H         1 UNK         0.0748 
    127 H127       30.7782   27.7311    5.1486 H         1 UNK         0.0771 
    128 H128       30.7535   29.4751    5.3864 H         1 UNK         0.0771 
    129 H129       29.9790   28.7622    3.9737 H         1 UNK         0.0771 
    130 H130       33.4286   26.6477    4.3322 H         1 UNK         0.2980 
    131 H131       35.7689   27.7515    5.5470 H         1 UNK         0.0545 
    132 H132       33.3479   27.1005    8.7065 H         1 UNK         0.3459 
    133 H133       32.7206   27.1907    7.0798 H         1 UNK         0.3459 
    134 H134       36.5184   25.4285    5.8099 H         1 UNK         0.0616 
    135 H135       34.9228   24.8185    5.4835 H         1 UNK         0.0616 
    136 H136       35.2806   24.0115    1.8456 H         1 UNK         0.0634 
    137 H137       35.0201   23.4098    3.4605 H         1 UNK         0.0634 
@<TRIPOS>BOND
     1    1    2 1    
     2    1   72 1    
     3    1   73 1    
     4    1   74 1    
     5    2    3 2    
     6    2    4 am   BACKBONE|DICT|INTERRES
     7    4    5 1    
     8    4   75 1    
     9    5    6 1    
    10    5   35 1    
    11    5   76 1    
    12    6    7 1    
    13    6   77 1    
    14    6   78 1    
    15    7    8 1    
    16    8    9 1    
    17    8   79 1    
    18    8   80 1    
    19    9   10 ar   
    20    9   14 ar   
    21   10   11 ar   
    22   10   81 1    
    23   11   12 ar   
    24   11   71 1    
    25   12   13 ar   
    26   12   82 1    
    27   13   14 ar   
    28   13   15 1    
    29   14   83 1    
    30   15   16 1    
    31   15   84 1    
    32   15   85 1    
    33   16   17 1    
    34   17   18 1    
    35   17   86 1    
    36   17   87 1    
    37   18   19 1    
    38   18   37 1    
    39   18   88 1    
    40   19   20 am   BACKBONE|DICT|INTERRES
    41   19   89 1    
    42   20   21 2    
    43   20   22 1    
    44   22   23 1    
    45   22   24 1    
    46   22   90 1    
    47   23   91 1    
    48   23   92 1    
    49   23   93 1    
    50   24   25 am   BACKBONE|DICT|INTERRES
    51   24   94 1    
    52   25   26 2    
    53   25   27 1    
    54   27   28 1    
    55   27   29 1    
    56   27   95 1    
    57   28   96 1    
    58   28   97 1    
    59   28   98 1    
    60   29   30 am   BACKBONE|DICT|INTERRES
    61   29   99 1    
    62   30   31 2    
    63   30   32 1    
    64   32   33 1    
    65   32   34 1    
    66   32  100 1    
    67   33  101 1    
    68   33  102 1    
    69   33  103 1    
    70   34   35 am   BACKBONE|DICT|INTERRES
    71   34  104 1    
    72   35   36 2    
    73   37   38 2    
    74   37   39 am   BACKBONE|DICT|INTERRES
    75   39   40 1    
    76   39  105 1    
    77   40   41 1    
    78   40   42 1    
    79   40  106 1    
    80   41  107 1    
    81   41  108 1    
    82   41  109 1    
    83   42   43 2    
    84   42   44 am   BACKBONE|DICT|INTERRES
    85   44   45 1    
    86   44  110 1    
    87   45   46 1    
    88   45   47 1    
    89   45  111 1    
    90   46  112 1    
    91   46  113 1    
    92   46  114 1    
    93   47   48 2    
    94   47   49 am   BACKBONE|DICT|INTERRES
    95   49   50 1    
    96   49  115 1    
    97   50   51 1    
    98   50   52 1    
    99   50  116 1    
   100   51  117 1    
   101   51  118 1    
   102   51  119 1    
   103   52   53 2    
   104   52   54 am   BACKBONE|DICT|INTERRES
   105   54   55 1    
   106   54  120 1    
   107   55   56 1    
   108   55   57 1    
   109   55  121 1    
   110   56  122 1    
   111   56  123 1    
   112   56  124 1    
   113   57   58 2    
   114   57   59 am   BACKBONE|DICT|INTERRES
   115   59   60 1    
   116   59  125 1    
   117   60   61 1    
   118   60   62 1    
   119   60  126 1    
   120   61  127 1    
   121   61  128 1    
   122   61  129 1    
   123   62   63 2    
   124   62   64 am   BACKBONE|DICT|INTERRES
   125   64   65 1    
   126   64  130 1    
   127   65   66 1    
   128   65   69 1    
   129   65  131 1    
   130   66   67 am   BACKBONE|DICT|INTERRES
   131   66   68 2    
   132   67  132 1    
   133   67  133 1    
   134   69   70 1    
   135   69  134 1    
   136   69  135 1    
   137   70   71 1    
   138   71  136 1    
   139   71  137 1    
@<TRIPOS>SUBSTRUCTURE
     1 UNK         1 GROUP             0       ****    0 ROOT    
