@<TRIPOS>MOLECULE
3R136
137   139    1
SMALL
USER_CHARGES


@<TRIPOS>ATOM
      1 CA         27.6641   18.7300    2.4920 C.3       0 UNK        -0.1979 
      2 C          27.8002   19.0522    1.0109 C.2       0 UNK         0.4864 
      3 O          27.3664   18.2621    0.1705 O.2       0 UNK        -0.5359 
      4 N          28.4056   20.2015    0.6884 N.am      1 UNK        -0.4318 
      5 CA         28.5531   20.7206   -0.6742 C.3       1 UNK         0.0824 
      6 C6         29.8275   21.5970   -0.8111 C.3       12 UNK        -0.0944 
      7 S7         29.8384   23.0940    0.2354 S.3       12 UNK        -0.2672 
      8 C8         31.0569   22.6394    1.5055 C.3       12 UNK         0.0333 
      9 C9         31.2483   23.7748    2.4978 C.ar      12 UNK        -0.0807 
     10 C10        32.2017   24.7659    2.2514 C.ar      12 UNK        -0.0894 
     11 C11        32.3780   25.8195    3.1523 C.ar      12 UNK        -0.0804 
     12 C12        31.5991   25.8767    4.3118 C.ar      12 UNK        -0.0824 
     13 C13        30.6399   24.8918    4.5667 C.ar      12 UNK        -0.0762 
     14 C14        30.4696   23.8427    3.6569 C.ar      12 UNK        -0.0782 
     15 C15        29.7873   24.9494    5.8246 C.3       12 UNK         0.0230 
     16 S16        28.1520   25.6771    5.4916 S.3       12 UNK        -0.2608 
     17 C17        28.4956   27.4694    5.5584 C.3       12 UNK        -0.0989 
     18 CA         28.5670   28.1445    4.1652 C.3       5 UNK         0.0716 
     19 N          27.4048   27.8398    3.3210 N.am      5 UNK        -0.4135 
     20 C          27.2616   28.2281    2.0474 C.2       4 UNK         0.5031 
     21 O          28.0641   28.9520    1.4511 O.2       4 UNK        -0.5229 
     22 CA         25.9840   27.7747    1.3284 C.3       4 UNK         0.0329 
     23 CB         24.9530   28.9143    1.2847 C.3       4 UNK        -0.2001 
     24 N          26.3157   27.3626   -0.0344 N.am      4 UNK        -0.4303 
     25 C          26.8042   26.1563   -0.3445 C.2       3 UNK         0.5044 
     26 O          26.8869   25.2238    0.4575 O.2       3 UNK        -0.5152 
     27 CA         27.3326   25.9883   -1.7781 C.3       3 UNK         0.0319 
     28 CB         28.8084   26.4159   -1.8533 C.3       3 UNK        -0.2001 
     29 N          27.2125   24.6034   -2.2358 N.am      3 UNK        -0.4354 
     30 C          26.0697   24.0355   -2.6462 C.2       2 UNK         0.4964 
     31 O          25.0028   24.6441   -2.7425 O.2       2 UNK        -0.5047 
     32 CA         26.1162   22.5462   -3.0410 C.3       2 UNK         0.0288 
     33 CB         26.2012   22.3997   -4.5697 C.3       2 UNK        -0.2113 
     34 N          27.2231   21.8047   -2.4275 N.am      2 UNK        -0.4145 
     35 C          27.2697   21.4497   -1.1354 C.2       1 UNK         0.5006 
     36 O          26.3589   21.6835   -0.3351 O.2       1 UNK        -0.5103 
     37 C          28.7906   29.6611    4.3279 C.2       5 UNK         0.5055 
     38 O          29.9332   30.1139    4.2693 O.2       5 UNK        -0.5220 
     39 N          27.6949   30.4160    4.5006 N.am      6 UNK        -0.4450 
     40 CA         27.6988   31.8748    4.6281 C.3       6 UNK         0.0367 
     41 CB         26.3141   32.3562    5.0892 C.3       6 UNK        -0.1929 
     42 C          28.1155   32.5903    3.3330 C.2       6 UNK         0.5070 
     43 O          28.8535   33.5724    3.4009 O.2       6 UNK        -0.5237 
     44 N          27.6758   32.0712    2.1766 N.am      7 UNK        -0.4739 
     45 CA         28.0502   32.5788    0.8506 C.3       7 UNK         0.0276 
     46 CB         27.1481   31.9521   -0.2242 C.3       7 UNK        -0.1927 
     47 C          29.5329   32.3275    0.5307 C.2       7 UNK         0.5013 
     48 O          30.1752   33.1742   -0.0903 O.2       7 UNK        -0.5193 
     49 N          30.0548   31.1911    1.0092 N.am      8 UNK        -0.4253 
     50 CA         31.4708   30.8249    0.9658 C.3       8 UNK         0.0242 
     51 CB         31.5711   29.2925    1.0006 C.3       8 UNK        -0.2000 
     52 C          32.3114   31.4676    2.0919 C.2       8 UNK         0.4948 
     53 O          33.4989   31.1547    2.1986 O.2       8 UNK        -0.5275 
     54 N          31.6976   32.3262    2.9247 N.am      9 UNK        -0.4246 
     55 CA         32.2845   33.0594    4.0560 C.3       9 UNK         0.0261 
     56 CB         33.2449   34.1529    3.5429 C.3       9 UNK        -0.1959 
     57 C          32.9352   32.1462    5.1153 C.2       9 UNK         0.5033 
     58 O          33.9494   32.5182    5.7085 O.2       9 UNK        -0.5390 
     59 N          32.3604   30.9487    5.3009 N.am      10 UNK        -0.4215 
     60 CA         32.8073   29.8424    6.1559 C.3       10 UNK         0.0240 
     61 CB         32.7681   30.2487    7.6440 C.3       10 UNK        -0.1982 
     62 C          34.1614   29.2117    5.7634 C.2       10 UNK         0.4970 
     63 O          34.6115   28.3180    6.4809 O.2       10 UNK        -0.4916 
     64 N          34.7640   29.6545    4.6462 N.am      11 UNK        -0.4279 
     65 CA         36.0473   29.2139    4.0648 C.3       11 UNK         0.1003 
     66 C          37.2513   29.0614    5.0460 C.2       11 UNK         0.5709 
     67 N          37.3311   29.8709    6.0956 N.am      11 UNK        -0.7358 
     68 O          38.1414   28.2382    4.8433 O.2       11 UNK        -0.4999 
     69 C69        35.8937   28.0749    3.0122 C.3       12 UNK        -0.0954 
     70 S70        35.0134   26.5778    3.5751 S.3       12 UNK        -0.2268 
     71 C71        33.3833   26.9146    2.8482 C.3       12 UNK         0.0203 
     72 H72        28.1597   17.7862    2.7181 H         1 UNK         0.0888 
     73 H73        28.1058   19.5036    3.1201 H         1 UNK         0.0888 
     74 H74        26.6120   18.6360    2.7598 H         1 UNK         0.0888 
     75 H75        28.6868   20.8383    1.4190 H         1 UNK         0.3017 
     76 H76        28.6793   19.8686   -1.3463 H         1 UNK         0.0873 
     77 H77        29.9675   21.9113   -1.8466 H         1 UNK         0.0745 
     78 H78        30.7065   20.9926   -0.5811 H         1 UNK         0.0745 
     79 H79        32.0075   22.3972    1.0275 H         1 UNK         0.0705 
     80 H80        30.7310   21.7360    2.0229 H         1 UNK         0.0705 
     81 H81        32.7989   24.7230    1.3506 H         1 UNK         0.1334 
     82 H82        31.7353   26.6912    5.0096 H         1 UNK         0.1417 
     83 H83        29.7226   23.0841    3.8479 H         1 UNK         0.1562 
     84 H84        30.2943   25.5020    6.6171 H         1 UNK         0.0748 
     85 H85        29.6451   23.9386    6.2100 H         1 UNK         0.0748 
     86 H86        29.4224   27.6403    6.1096 H         1 UNK         0.0940 
     87 H87        27.7067   27.9231    6.1620 H         1 UNK         0.0940 
     88 H88        29.4411   27.7485    3.6440 H         1 UNK         0.0703 
     89 H89        26.7114   27.2305    3.7310 H         1 UNK         0.3081 
     90 H90        25.5435   26.9323    1.8666 H         1 UNK         0.0719 
     91 H91        24.0343   28.5956    0.7917 H         1 UNK         0.0809 
     92 H92        24.6829   29.2375    2.2909 H         1 UNK         0.0809 
     93 H93        25.3306   29.7867    0.7518 H         1 UNK         0.0809 
     94 H94        26.3345   28.0915   -0.7326 H         1 UNK         0.2990 
     95 H95        26.7513   26.6285   -2.4456 H         1 UNK         0.0690 
     96 H96        29.1965   26.3308   -2.8684 H         1 UNK         0.0788 
     97 H97        29.4377   25.8100   -1.2001 H         1 UNK         0.0788 
     98 H98        28.9312   27.4555   -1.5453 H         1 UNK         0.0788 
     99 H99        28.0286   24.0204   -2.1256 H         1 UNK         0.2993 
    100 H100       25.1779   22.0961   -2.7083 H         1 UNK         0.0949 
    101 H101       26.1523   21.3533   -4.8719 H         1 UNK         0.0767 
    102 H102       25.3721   22.9144   -5.0577 H         1 UNK         0.0767 
    103 H103       27.1254   22.8226   -4.9658 H         1 UNK         0.0767 
    104 H104       27.9977   21.5684   -3.0312 H         1 UNK         0.3013 
    105 H105       26.7965   29.9569    4.5380 H         1 UNK         0.3121 
    106 H106       28.4258   32.1410    5.3989 H         1 UNK         0.0774 
    107 H107       26.2999   33.4403    5.2107 H         1 UNK         0.0815 
    108 H108       25.5342   32.0993    4.3712 H         1 UNK         0.0815 
    109 H109       26.0426   31.9216    6.0514 H         1 UNK         0.0815 
    110 H110       27.1137   31.2331    2.2031 H         1 UNK         0.2987 
    111 H111       27.8892   33.6593    0.8445 H         1 UNK         0.0949 
    112 H112       27.2855   30.8725   -0.2903 H         1 UNK         0.0806 
    113 H113       26.0948   32.1493   -0.0249 H         1 UNK         0.0806 
    114 H114       27.3734   32.3666   -1.2077 H         1 UNK         0.0806 
    115 H115       29.4282   30.5280    1.4552 H         1 UNK         0.3010 
    116 H116       31.8921   31.1691    0.0191 H         1 UNK         0.0829 
    117 H117       30.9914   28.8368    0.1975 H         1 UNK         0.0813 
    118 H118       32.6049   28.9726    0.8725 H         1 UNK         0.0813 
    119 H119       31.2054   28.8876    1.9449 H         1 UNK         0.0813 
    120 H120       30.7103   32.4963    2.7774 H         1 UNK         0.3038 
    121 H121       31.4540   33.5571    4.5587 H         1 UNK         0.0769 
    122 H122       33.5892   34.7884    4.3597 H         1 UNK         0.0811 
    123 H123       32.7553   34.8003    2.8155 H         1 UNK         0.0811 
    124 H124       34.1285   33.7235    3.0694 H         1 UNK         0.0811 
    125 H125       31.5114   30.7468    4.7690 H         1 UNK         0.3204 
    126 H126       32.0668   29.0540    6.0149 H         1 UNK         0.0748 
    127 H127       32.9508   29.3899    8.2910 H         1 UNK         0.0771 
    128 H128       33.5242   30.9979    7.8803 H         1 UNK         0.0771 
    129 H129       31.7947   30.6558    7.9178 H         1 UNK         0.0771 
    130 H130       34.2960   30.3807    4.1182 H         1 UNK         0.2980 
    131 H131       36.3554   30.0802    3.4782 H         1 UNK         0.0545 
    132 H132       38.1108   29.7852    6.7280 H         1 UNK         0.3459 
    133 H133       36.6091   30.5525    6.2694 H         1 UNK         0.3459 
    134 H134       35.3706   28.4761    2.1426 H         1 UNK         0.0616 
    135 H135       36.8673   27.7690    2.6265 H         1 UNK         0.0616 
    136 H136       33.4952   27.0183    1.7684 H         1 UNK         0.0634 
    137 H137       33.0133   27.8712    3.2187 H         1 UNK         0.0634 
@<TRIPOS>BOND
     1    1    2 1    
     2    1   72 1    
     3    1   73 1    
     4    1   74 1    
     5    2    3 2    
     6    2    4 am   BACKBONE|DICT|INTERRES
     7    4    5 1    
     8    4   75 1    
     9    5    6 1    
    10    5   35 1    
    11    5   76 1    
    12    6    7 1    
    13    6   77 1    
    14    6   78 1    
    15    7    8 1    
    16    8    9 1    
    17    8   79 1    
    18    8   80 1    
    19    9   10 ar   
    20    9   14 ar   
    21   10   11 ar   
    22   10   81 1    
    23   11   12 ar   
    24   11   71 1    
    25   12   13 ar   
    26   12   82 1    
    27   13   14 ar   
    28   13   15 1    
    29   14   83 1    
    30   15   16 1    
    31   15   84 1    
    32   15   85 1    
    33   16   17 1    
    34   17   18 1    
    35   17   86 1    
    36   17   87 1    
    37   18   19 1    
    38   18   37 1    
    39   18   88 1    
    40   19   20 am   BACKBONE|DICT|INTERRES
    41   19   89 1    
    42   20   21 2    
    43   20   22 1    
    44   22   23 1    
    45   22   24 1    
    46   22   90 1    
    47   23   91 1    
    48   23   92 1    
    49   23   93 1    
    50   24   25 am   BACKBONE|DICT|INTERRES
    51   24   94 1    
    52   25   26 2    
    53   25   27 1    
    54   27   28 1    
    55   27   29 1    
    56   27   95 1    
    57   28   96 1    
    58   28   97 1    
    59   28   98 1    
    60   29   30 am   BACKBONE|DICT|INTERRES
    61   29   99 1    
    62   30   31 2    
    63   30   32 1    
    64   32   33 1    
    65   32   34 1    
    66   32  100 1    
    67   33  101 1    
    68   33  102 1    
    69   33  103 1    
    70   34   35 am   BACKBONE|DICT|INTERRES
    71   34  104 1    
    72   35   36 2    
    73   37   38 2    
    74   37   39 am   BACKBONE|DICT|INTERRES
    75   39   40 1    
    76   39  105 1    
    77   40   41 1    
    78   40   42 1    
    79   40  106 1    
    80   41  107 1    
    81   41  108 1    
    82   41  109 1    
    83   42   43 2    
    84   42   44 am   BACKBONE|DICT|INTERRES
    85   44   45 1    
    86   44  110 1    
    87   45   46 1    
    88   45   47 1    
    89   45  111 1    
    90   46  112 1    
    91   46  113 1    
    92   46  114 1    
    93   47   48 2    
    94   47   49 am   BACKBONE|DICT|INTERRES
    95   49   50 1    
    96   49  115 1    
    97   50   51 1    
    98   50   52 1    
    99   50  116 1    
   100   51  117 1    
   101   51  118 1    
   102   51  119 1    
   103   52   53 2    
   104   52   54 am   BACKBONE|DICT|INTERRES
   105   54   55 1    
   106   54  120 1    
   107   55   56 1    
   108   55   57 1    
   109   55  121 1    
   110   56  122 1    
   111   56  123 1    
   112   56  124 1    
   113   57   58 2    
   114   57   59 am   BACKBONE|DICT|INTERRES
   115   59   60 1    
   116   59  125 1    
   117   60   61 1    
   118   60   62 1    
   119   60  126 1    
   120   61  127 1    
   121   61  128 1    
   122   61  129 1    
   123   62   63 2    
   124   62   64 am   BACKBONE|DICT|INTERRES
   125   64   65 1    
   126   64  130 1    
   127   65   66 1    
   128   65   69 1    
   129   65  131 1    
   130   66   67 am   BACKBONE|DICT|INTERRES
   131   66   68 2    
   132   67  132 1    
   133   67  133 1    
   134   69   70 1    
   135   69  134 1    
   136   69  135 1    
   137   70   71 1    
   138   71  136 1    
   139   71  137 1    
@<TRIPOS>SUBSTRUCTURE
     1 UNK         1 GROUP             0       ****    0 ROOT    
