@<TRIPOS>MOLECULE
3R136
137   139    1
SMALL
USER_CHARGES


@<TRIPOS>ATOM
      1 CA         26.9326   26.2597    3.7483 C.3       0 UNK        -0.1979 
      2 C          26.8004   24.8436    3.2084 C.2       0 UNK         0.4864 
      3 O          25.6823   24.3769    2.9850 O.2       0 UNK        -0.5359 
      4 N          27.9363   24.1632    2.9956 N.am      1 UNK        -0.4318 
      5 CA         28.0666   22.7939    2.4808 C.3       1 UNK         0.0824 
      6 C6         29.5499   22.3537    2.3570 C.3       12 UNK        -0.0944 
      7 S7         30.4848   22.3832    3.9288 S.3       12 UNK        -0.2672 
      8 C8         31.0573   24.1104    4.0955 C.3       12 UNK         0.0333 
      9 C9         32.0059   24.5536    2.9886 C.ar      12 UNK        -0.0807 
     10 C10        33.3875   24.4234    3.1574 C.ar      12 UNK        -0.0894 
     11 C11        34.2685   24.8485    2.1586 C.ar      12 UNK        -0.0804 
     12 C12        33.7576   25.3986    0.9782 C.ar      12 UNK        -0.0824 
     13 C13        32.3780   25.5311    0.7945 C.ar      12 UNK        -0.0762 
     14 C14        31.5096   25.1216    1.8101 C.ar      12 UNK        -0.0782 
     15 C15        31.8255   26.0616   -0.5224 C.3       12 UNK         0.0230 
     16 S16        31.8497   27.8792   -0.6245 S.3       12 UNK        -0.2608 
     17 C17        30.4686   28.3489    0.4664 C.3       12 UNK        -0.0989 
     18 CA         29.1521   28.6598   -0.2918 C.3       5 UNK         0.0716 
     19 N          28.5342   27.4592   -0.8461 N.am      5 UNK        -0.4135 
     20 C          28.4547   27.1392   -2.1414 C.2       4 UNK         0.5031 
     21 O          28.9792   27.7892   -3.0467 O.2       4 UNK        -0.5229 
     22 CA         27.6459   25.8791   -2.4978 C.3       4 UNK         0.0329 
     23 CB         28.5829   24.6888   -2.7593 C.3       4 UNK        -0.2001 
     24 N          26.6630   25.5062   -1.4743 N.am      4 UNK        -0.4303 
     25 C          25.4900   26.1341   -1.2871 C.2       3 UNK         0.5044 
     26 O          25.1464   27.1203   -1.9411 O.2       3 UNK        -0.5152 
     27 CA         24.5442   25.5891   -0.1912 C.3       3 UNK         0.0319 
     28 CB         23.0545   25.8029   -0.5336 C.3       3 UNK        -0.2001 
     29 N          24.7980   24.1917    0.1816 N.am      3 UNK        -0.4354 
     30 C          24.7540   23.1089   -0.6140 C.2       2 UNK         0.4964 
     31 O          24.3480   23.1337   -1.7769 O.2       2 UNK        -0.5047 
     32 CA         25.2893   21.7813   -0.0268 C.3       2 UNK         0.0288 
     33 CB         25.9333   20.8863   -1.1078 C.3       2 UNK        -0.2113 
     34 N          26.2147   21.9504    1.1057 N.am      2 UNK        -0.4145 
     35 C          27.3540   22.6614    1.1206 C.2       1 UNK         0.5006 
     36 O          27.8048   23.2666    0.1450 O.2       1 UNK        -0.5103 
     37 C          28.1383   29.2714    0.6852 C.2       5 UNK         0.5055 
     38 O          27.3822   28.5305    1.3206 O.2       5 UNK        -0.5220 
     39 N          28.1909   30.6000    0.8381 N.am      6 UNK        -0.4450 
     40 CA         27.5819   31.3176    1.9602 C.3       6 UNK         0.0367 
     41 CB         27.4998   32.8129    1.6135 C.3       6 UNK        -0.1929 
     42 C          28.4305   31.1113    3.2251 C.2       6 UNK         0.5070 
     43 O          29.6319   30.8635    3.1083 O.2       6 UNK        -0.5237 
     44 N          27.8207   31.2574    4.4081 N.am      7 UNK        -0.4739 
     45 CA         28.4380   30.9886    5.7172 C.3       7 UNK         0.0276 
     46 CB         27.4170   31.2809    6.8284 C.3       7 UNK        -0.1927 
     47 C          29.7605   31.7321    5.9954 C.2       7 UNK         0.5013 
     48 O          30.6220   31.1877    6.6858 O.2       7 UNK        -0.5193 
     49 N          29.9092   32.9403    5.4353 N.am      8 UNK        -0.4253 
     50 CA         31.1328   33.7437    5.5078 C.3       8 UNK         0.0242 
     51 CB         30.7913   35.2068    5.1805 C.3       8 UNK        -0.2000 
     52 C          32.2589   33.2397    4.5835 C.2       8 UNK         0.4948 
     53 O          33.4270   33.5037    4.8710 O.2       8 UNK        -0.5275 
     54 N          31.9005   32.5494    3.4923 N.am      9 UNK        -0.4246 
     55 CA         32.8277   32.0202    2.4880 C.3       9 UNK         0.0261 
     56 CB         32.2137   32.2218    1.0922 C.3       9 UNK        -0.1959 
     57 C          33.1529   30.5339    2.7095 C.2       9 UNK         0.5033 
     58 O          34.1916   30.0751    2.2332 O.2       9 UNK        -0.5390 
     59 N          32.2681   29.8115    3.4105 N.am      10 UNK        -0.4215 
     60 CA         32.2721   28.3680    3.6749 C.3       10 UNK         0.0240 
     61 CB         30.8874   27.9974    4.2419 C.3       10 UNK        -0.1982 
     62 C          33.4241   27.8503    4.5668 C.2       10 UNK         0.4970 
     63 O          33.1798   27.0638    5.4836 O.2       10 UNK        -0.4916 
     64 N          34.6552   28.2870    4.2805 N.am      11 UNK        -0.4279 
     65 CA         35.9177   27.8644    4.9105 C.3       11 UNK         0.1003 
     66 C          36.0293   28.1480    6.4413 C.2       11 UNK         0.5709 
     67 N          35.2383   29.0541    7.0038 N.am      11 UNK        -0.7358 
     68 O          36.8705   27.5717    7.1277 O.2       11 UNK        -0.4999 
     69 C69        36.3110   26.4094    4.5208 C.3       12 UNK        -0.0954 
     70 S70        36.6085   26.2410    2.7267 S.3       12 UNK        -0.2268 
     71 C71        35.7704   24.6748    2.3319 C.3       12 UNK         0.0203 
     72 H72        27.9420   26.6515    3.6251 H         1 UNK         0.0888 
     73 H73        26.2503   26.9268    3.2220 H         1 UNK         0.0888 
     74 H74        26.6804   26.2831    4.8080 H         1 UNK         0.0888 
     75 H75        28.8112   24.6094    3.2154 H         1 UNK         0.3017 
     76 H76        27.5767   22.1326    3.1985 H         1 UNK         0.0873 
     77 H77        30.0769   22.9286    1.5974 H         1 UNK         0.0745 
     78 H78        29.5882   21.3224    2.0005 H         1 UNK         0.0745 
     79 H79        31.5604   24.2078    5.0592 H         1 UNK         0.0705 
     80 H80        30.2020   24.7789    4.1547 H         1 UNK         0.0705 
     81 H81        33.7767   23.9915    4.0693 H         1 UNK         0.1334 
     82 H82        34.4355   25.7135    0.1963 H         1 UNK         0.1417 
     83 H83        30.4434   25.2249    1.6684 H         1 UNK         0.1562 
     84 H84        30.8092   25.7017   -0.6825 H         1 UNK         0.0748 
     85 H85        32.4166   25.6611   -1.3472 H         1 UNK         0.0748 
     86 H86        30.8028   29.2289    1.0183 H         1 UNK         0.0940 
     87 H87        30.3076   27.5764    1.2175 H         1 UNK         0.0940 
     88 H88        29.3469   29.3870   -1.0831 H         1 UNK         0.0703 
     89 H89        27.9950   26.9216   -0.1816 H         1 UNK         0.3081 
     90 H90        27.1086   26.0907   -3.4249 H         1 UNK         0.0719 
     91 H91        29.3018   24.9220   -3.5459 H         1 UNK         0.0809 
     92 H92        29.1504   24.4159   -1.8695 H         1 UNK         0.0809 
     93 H93        28.0246   23.8090   -3.0800 H         1 UNK         0.0809 
     94 H94        26.8925   24.6997   -0.8998 H         1 UNK         0.2990 
     95 H95        24.7620   26.1764    0.7022 H         1 UNK         0.0690 
     96 H96        22.4077   25.4262    0.2587 H         1 UNK         0.0788 
     97 H97        22.7761   25.3023   -1.4614 H         1 UNK         0.0788 
     98 H98        22.8281   26.8627   -0.6567 H         1 UNK         0.0788 
     99 H99        25.1263   24.0642    1.1363 H         1 UNK         0.2993 
    100 H100       24.4166   21.2559    0.3643 H         1 UNK         0.0949 
    101 H101       26.7765   21.3814   -1.5913 H         1 UNK         0.0767 
    102 H102       26.2931   19.9487   -0.6842 H         1 UNK         0.0767 
    103 H103       25.2150   20.6312   -1.8880 H         1 UNK         0.0767 
    104 H104       25.9032   21.5429    1.9772 H         1 UNK         0.3013 
    105 H105       28.8622   31.1213    0.2938 H         1 UNK         0.3121 
    106 H106       26.5758   30.9300    2.1350 H         1 UNK         0.0774 
    107 H107       28.4879   33.2481    1.4557 H         1 UNK         0.0815 
    108 H108       26.9130   32.9779    0.7097 H         1 UNK         0.0815 
    109 H109       27.0201   33.3760    2.4150 H         1 UNK         0.0815 
    110 H110       26.8375   31.4902    4.4171 H         1 UNK         0.2987 
    111 H111       28.6682   29.9215    5.7440 H         1 UNK         0.0949 
    112 H112       26.5246   30.6639    6.7216 H         1 UNK         0.0806 
    113 H113       27.8378   31.0681    7.8124 H         1 UNK         0.0806 
    114 H114       27.1064   32.3265    6.8263 H         1 UNK         0.0806 
    115 H115       29.1446   33.3099    4.8892 H         1 UNK         0.3010 
    116 H116       31.5098   33.7042    6.5324 H         1 UNK         0.0829 
    117 H117       30.3985   35.3144    4.1686 H         1 UNK         0.0813 
    118 H118       31.6767   35.8400    5.2549 H         1 UNK         0.0813 
    119 H119       30.0510   35.6066    5.8738 H         1 UNK         0.0813 
    120 H120       30.9230   32.3080    3.3649 H         1 UNK         0.3038 
    121 H121       33.7701   32.5709    2.5249 H         1 UNK         0.0769 
    122 H122       32.0465   33.2784    0.8829 H         1 UNK         0.0811 
    123 H123       31.2589   31.7053    0.9914 H         1 UNK         0.0811 
    124 H124       32.8756   31.8380    0.3144 H         1 UNK         0.0811 
    125 H125       31.4134   30.2890    3.6774 H         1 UNK         0.3204 
    126 H126       32.3902   27.8623    2.7151 H         1 UNK         0.0748 
    127 H127       30.6940   28.5138    5.1827 H         1 UNK         0.0771 
    128 H128       30.0858   28.2518    3.5494 H         1 UNK         0.0771 
    129 H129       30.8115   26.9312    4.4404 H         1 UNK         0.0771 
    130 H130       34.7405   28.9375    3.5015 H         1 UNK         0.2980 
    131 H131       36.6745   28.5202    4.4791 H         1 UNK         0.0545 
    132 H132       35.3245   29.2406    7.9902 H         1 UNK         0.3459 
    133 H133       34.5431   29.5340    6.4555 H         1 UNK         0.3459 
    134 H134       35.5432   25.7059    4.8451 H         1 UNK         0.0616 
    135 H135       37.2325   26.1056    5.0196 H         1 UNK         0.0616 
    136 H136       35.9937   23.9359    3.1031 H         1 UNK         0.0634 
    137 H137       36.1918   24.2810    1.4059 H         1 UNK         0.0634 
@<TRIPOS>BOND
     1    1    2 1    
     2    1   72 1    
     3    1   73 1    
     4    1   74 1    
     5    2    3 2    
     6    2    4 am   BACKBONE|DICT|INTERRES
     7    4    5 1    
     8    4   75 1    
     9    5    6 1    
    10    5   35 1    
    11    5   76 1    
    12    6    7 1    
    13    6   77 1    
    14    6   78 1    
    15    7    8 1    
    16    8    9 1    
    17    8   79 1    
    18    8   80 1    
    19    9   10 ar   
    20    9   14 ar   
    21   10   11 ar   
    22   10   81 1    
    23   11   12 ar   
    24   11   71 1    
    25   12   13 ar   
    26   12   82 1    
    27   13   14 ar   
    28   13   15 1    
    29   14   83 1    
    30   15   16 1    
    31   15   84 1    
    32   15   85 1    
    33   16   17 1    
    34   17   18 1    
    35   17   86 1    
    36   17   87 1    
    37   18   19 1    
    38   18   37 1    
    39   18   88 1    
    40   19   20 am   BACKBONE|DICT|INTERRES
    41   19   89 1    
    42   20   21 2    
    43   20   22 1    
    44   22   23 1    
    45   22   24 1    
    46   22   90 1    
    47   23   91 1    
    48   23   92 1    
    49   23   93 1    
    50   24   25 am   BACKBONE|DICT|INTERRES
    51   24   94 1    
    52   25   26 2    
    53   25   27 1    
    54   27   28 1    
    55   27   29 1    
    56   27   95 1    
    57   28   96 1    
    58   28   97 1    
    59   28   98 1    
    60   29   30 am   BACKBONE|DICT|INTERRES
    61   29   99 1    
    62   30   31 2    
    63   30   32 1    
    64   32   33 1    
    65   32   34 1    
    66   32  100 1    
    67   33  101 1    
    68   33  102 1    
    69   33  103 1    
    70   34   35 am   BACKBONE|DICT|INTERRES
    71   34  104 1    
    72   35   36 2    
    73   37   38 2    
    74   37   39 am   BACKBONE|DICT|INTERRES
    75   39   40 1    
    76   39  105 1    
    77   40   41 1    
    78   40   42 1    
    79   40  106 1    
    80   41  107 1    
    81   41  108 1    
    82   41  109 1    
    83   42   43 2    
    84   42   44 am   BACKBONE|DICT|INTERRES
    85   44   45 1    
    86   44  110 1    
    87   45   46 1    
    88   45   47 1    
    89   45  111 1    
    90   46  112 1    
    91   46  113 1    
    92   46  114 1    
    93   47   48 2    
    94   47   49 am   BACKBONE|DICT|INTERRES
    95   49   50 1    
    96   49  115 1    
    97   50   51 1    
    98   50   52 1    
    99   50  116 1    
   100   51  117 1    
   101   51  118 1    
   102   51  119 1    
   103   52   53 2    
   104   52   54 am   BACKBONE|DICT|INTERRES
   105   54   55 1    
   106   54  120 1    
   107   55   56 1    
   108   55   57 1    
   109   55  121 1    
   110   56  122 1    
   111   56  123 1    
   112   56  124 1    
   113   57   58 2    
   114   57   59 am   BACKBONE|DICT|INTERRES
   115   59   60 1    
   116   59  125 1    
   117   60   61 1    
   118   60   62 1    
   119   60  126 1    
   120   61  127 1    
   121   61  128 1    
   122   61  129 1    
   123   62   63 2    
   124   62   64 am   BACKBONE|DICT|INTERRES
   125   64   65 1    
   126   64  130 1    
   127   65   66 1    
   128   65   69 1    
   129   65  131 1    
   130   66   67 am   BACKBONE|DICT|INTERRES
   131   66   68 2    
   132   67  132 1    
   133   67  133 1    
   134   69   70 1    
   135   69  134 1    
   136   69  135 1    
   137   70   71 1    
   138   71  136 1    
   139   71  137 1    
@<TRIPOS>SUBSTRUCTURE
     1 UNK         1 GROUP             0       ****    0 ROOT    
