@<TRIPOS>MOLECULE
3R136
137   139    1
SMALL
USER_CHARGES


@<TRIPOS>ATOM
      1 CA         25.4412   25.1198    3.4458 C.3       0 UNK        -0.1979 
      2 C          25.8706   23.6881    3.7250 C.2       0 UNK         0.4864 
      3 O          25.4967   23.1271    4.7566 O.2       0 UNK        -0.5359 
      4 N          26.6426   23.0994    2.8074 N.am      1 UNK        -0.4318 
      5 CA         27.0625   21.6987    2.8168 C.3       1 UNK         0.0824 
      6 C6         28.5964   21.5508    3.0346 C.3       12 UNK        -0.0944 
      7 S7         29.6553   22.3396    1.7633 S.3       12 UNK        -0.2672 
      8 C8         31.0711   22.9202    2.7478 C.3       12 UNK         0.0333 
      9 C9         31.1048   24.4380    2.8285 C.ar      12 UNK        -0.0807 
     10 C10        31.9217   25.1652    1.9587 C.ar      12 UNK        -0.0894 
     11 C11        31.9857   26.5596    2.0380 C.ar      12 UNK        -0.0804 
     12 C12        31.2161   27.2264    2.9948 C.ar      12 UNK        -0.0824 
     13 C13        30.3747   26.5124    3.8545 C.ar      12 UNK        -0.0762 
     14 C14        30.3282   25.1169    3.7713 C.ar      12 UNK        -0.0782 
     15 C15        29.5141   27.2401    4.8766 C.3       12 UNK         0.0230 
     16 S16        27.8626   27.6173    4.2150 S.3       12 UNK        -0.2608 
     17 C17        28.1335   29.1976    3.3434 C.3       12 UNK        -0.0989 
     18 CA         28.3429   29.0397    1.8134 C.3       5 UNK         0.0716 
     19 N          27.2518   28.3029    1.1668 N.am      5 UNK        -0.4135 
     20 C          27.3527   27.6514    0.0014 C.2       4 UNK         0.5031 
     21 O          28.3756   27.6409   -0.6906 O.2       4 UNK        -0.5229 
     22 CA         26.0850   26.9398   -0.5004 C.3       4 UNK         0.0329 
     23 CB         25.2165   27.9107   -1.3171 C.3       4 UNK        -0.2001 
     24 N          26.4196   25.7823   -1.3331 N.am      4 UNK        -0.4303 
     25 C          26.9360   24.6418   -0.8611 C.2       3 UNK         0.5044 
     26 O          27.0898   24.4041    0.3407 O.2       3 UNK        -0.5152 
     27 CA         27.3622   23.6030   -1.9089 C.3       3 UNK         0.0319 
     28 CB         28.7143   23.9882   -2.5327 C.3       3 UNK        -0.2001 
     29 N          27.5014   22.3094   -1.2492 N.am      3 UNK        -0.4354 
     30 C          26.9075   21.1640   -1.6071 C.2       2 UNK         0.4964 
     31 O          26.2590   21.0200   -2.6441 O.2       2 UNK        -0.5047 
     32 CA         27.0481   19.9743   -0.6340 C.3       2 UNK         0.0288 
     33 CB         28.1437   19.0093   -1.1157 C.3       2 UNK        -0.2113 
     34 N          27.3533   20.4007    0.7358 N.am      2 UNK        -0.4145 
     35 C          26.4949   21.0422    1.5409 C.2       1 UNK         0.5006 
     36 O          25.2928   21.1566    1.2873 O.2       1 UNK        -0.5103 
     37 C          28.5807   30.4008    1.1240 C.2       5 UNK         0.5055 
     38 O          28.3587   31.4491    1.7328 O.2       5 UNK        -0.5220 
     39 N          29.0327   30.3657   -0.1371 N.am      6 UNK        -0.4450 
     40 CA         29.2870   31.5296   -0.9973 C.3       6 UNK         0.0367 
     41 CB         29.7086   31.0385   -2.3914 C.3       6 UNK        -0.1929 
     42 C          30.3226   32.5276   -0.4427 C.2       6 UNK         0.5070 
     43 O          30.2741   33.7067   -0.7928 O.2       6 UNK        -0.5237 
     44 N          31.2202   32.0481    0.4284 N.am      7 UNK        -0.4739 
     45 CA         32.1982   32.8538    1.1637 C.3       7 UNK         0.0276 
     46 CB         33.3271   31.9264    1.6467 C.3       7 UNK        -0.1927 
     47 C          31.5974   33.6378    2.3503 C.2       7 UNK         0.5013 
     48 O          32.3162   34.4406    2.9461 O.2       7 UNK        -0.5193 
     49 N          30.3237   33.3782    2.6952 N.am      8 UNK        -0.4253 
     50 CA         29.5748   33.9126    3.8446 C.3       8 UNK         0.0242 
     51 CB         29.4220   35.4463    3.7560 C.3       8 UNK        -0.2000 
     52 C          30.1192   33.4431    5.2111 C.2       8 UNK         0.4948 
     53 O          29.8390   34.0702    6.2342 O.2       8 UNK        -0.5275 
     54 N          30.8661   32.3358    5.2028 N.am      9 UNK        -0.4246 
     55 CA         31.5032   31.6611    6.3262 C.3       9 UNK         0.0261 
     56 CB         32.6903   32.4938    6.8495 C.3       9 UNK        -0.1959 
     57 C          31.9771   30.2989    5.8044 C.2       9 UNK         0.5033 
     58 O          31.9854   30.0892    4.5872 O.2       9 UNK        -0.5390 
     59 N          32.3663   29.3984    6.7157 N.am      10 UNK        -0.4215 
     60 CA         32.9540   28.0966    6.3879 C.3       10 UNK         0.0240 
     61 CB         33.0399   27.2345    7.6585 C.3       10 UNK        -0.1982 
     62 C          34.3332   28.2771    5.7338 C.2       10 UNK         0.4970 
     63 O          35.2628   28.7280    6.4063 O.2       10 UNK        -0.4916 
     64 N          34.4269   27.9590    4.4376 N.am      11 UNK        -0.4279 
     65 CA         35.6363   28.1538    3.6253 C.3       11 UNK         0.1003 
     66 C          36.7534   27.0870    3.8265 C.2       11 UNK         0.5709 
     67 N          36.5172   26.0049    4.5594 N.am      11 UNK        -0.7358 
     68 O          37.8616   27.2554    3.3227 O.2       11 UNK        -0.4999 
     69 C69        35.2832   28.3999    2.1349 C.3       12 UNK        -0.0954 
     70 S70        34.6209   26.9464    1.2476 S.3       12 UNK        -0.2268 
     71 C71        32.8508   27.3361    1.0549 C.3       12 UNK         0.0203 
     72 H72        26.0770   25.5878    2.6943 H         1 UNK         0.0888 
     73 H73        24.4126   25.1406    3.0874 H         1 UNK         0.0888 
     74 H74        25.4985   25.7158    4.3560 H         1 UNK         0.0888 
     75 H75        26.8781   23.6093    1.9553 H         1 UNK         0.3017 
     76 H76        26.5736   21.1737    3.6399 H         1 UNK         0.0873 
     77 H77        28.8395   21.9802    4.0075 H         1 UNK         0.0745 
     78 H78        28.8709   20.4972    3.1113 H         1 UNK         0.0745 
     79 H79        31.9869   22.5504    2.2842 H         1 UNK         0.0705 
     80 H80        31.0545   22.4915    3.7505 H         1 UNK         0.0705 
     81 H81        32.5123   24.6461    1.2160 H         1 UNK         0.1334 
     82 H82        31.2480   28.3044    3.0510 H         1 UNK         0.1417 
     83 H83        29.6799   24.5585    4.4330 H         1 UNK         0.1562 
     84 H84        29.9975   28.1561    5.2141 H         1 UNK         0.0748 
     85 H85        29.3989   26.6186    5.7660 H         1 UNK         0.0748 
     86 H86        28.9840   29.7138    3.7933 H         1 UNK         0.0940 
     87 H87        27.2659   29.8297    3.5433 H         1 UNK         0.0940 
     88 H88        29.2548   28.4611    1.6679 H         1 UNK         0.0703 
     89 H89        26.3726   28.2942    1.6624 H         1 UNK         0.3081 
     90 H90        25.5100   26.5920    0.3606 H         1 UNK         0.0719 
     91 H91        25.7481   28.2914   -2.1904 H         1 UNK         0.0809 
     92 H92        24.3017   27.4294   -1.6640 H         1 UNK         0.0809 
     93 H93        24.9191   28.7718   -0.7170 H         1 UNK         0.0809 
     94 H94        26.3644   25.9147   -2.3324 H         1 UNK         0.2990 
     95 H95        26.5966   23.5597   -2.6864 H         1 UNK         0.0690 
     96 H96        29.0360   23.2487   -3.2663 H         1 UNK         0.0788 
     97 H97        29.4963   24.0717   -1.7762 H         1 UNK         0.0788 
     98 H98        28.6535   24.9489   -3.0455 H         1 UNK         0.0788 
     99 H99        27.9627   22.3521   -0.3497 H         1 UNK         0.2993 
    100 H100       26.0948   19.4410   -0.6261 H         1 UNK         0.0949 
    101 H101       29.1233   19.4888   -1.1379 H         1 UNK         0.0767 
    102 H102       28.2122   18.1329   -0.4707 H         1 UNK         0.0767 
    103 H103       27.9323   18.6519   -2.1246 H         1 UNK         0.0767 
    104 H104       28.3257   20.3730    1.0131 H         1 UNK         0.3013 
    105 H105       29.1214   29.4475   -0.5657 H         1 UNK         0.3121 
    106 H106       28.3436   32.0707   -1.0960 H         1 UNK         0.0774 
    107 H107       29.8748   31.8779   -3.0682 H         1 UNK         0.0815 
    108 H108       30.6339   30.4622   -2.3526 H         1 UNK         0.0815 
    109 H109       28.9396   30.4097   -2.8407 H         1 UNK         0.0815 
    110 H110       31.1902   31.0623    0.6422 H         1 UNK         0.2987 
    111 H111       32.6278   33.5890    0.4796 H         1 UNK         0.0949 
    112 H112       34.0989   32.4879    2.1750 H         1 UNK         0.0806 
    113 H113       32.9573   31.1623    2.3310 H         1 UNK         0.0806 
    114 H114       33.8127   31.4229    0.8106 H         1 UNK         0.0806 
    115 H115       29.8079   32.6989    2.1420 H         1 UNK         0.3010 
    116 H116       28.5750   33.4829    3.7656 H         1 UNK         0.0829 
    117 H117       29.0341   35.7508    2.7839 H         1 UNK         0.0813 
    118 H118       28.7255   35.8135    4.5107 H         1 UNK         0.0813 
    119 H119       30.3704   35.9596    3.9162 H         1 UNK         0.0813 
    120 H120       31.0285   31.8558    4.3248 H         1 UNK         0.3038 
    121 H121       30.7671   31.5056    7.1173 H         1 UNK         0.0769 
    122 H122       32.3649   33.4656    7.2207 H         1 UNK         0.0811 
    123 H123       33.4317   32.6676    6.0682 H         1 UNK         0.0811 
    124 H124       33.1959   31.9904    7.6742 H         1 UNK         0.0811 
    125 H125       32.3558   29.6562    7.6920 H         1 UNK         0.3204 
    126 H126       32.2968   27.5854    5.6846 H         1 UNK         0.0748 
    127 H127       33.4720   26.2576    7.4373 H         1 UNK         0.0771 
    128 H128       33.6615   27.6998    8.4248 H         1 UNK         0.0771 
    129 H129       32.0525   27.0608    8.0867 H         1 UNK         0.0771 
    130 H130       33.6215   27.5949    3.9497 H         1 UNK         0.2980 
    131 H131       36.0906   29.0848    3.9705 H         1 UNK         0.0545 
    132 H132       35.6118   25.8573    4.9741 H         1 UNK         0.3459 
    133 H133       37.2504   25.3257    4.6877 H         1 UNK         0.3459 
    134 H134       36.1736   28.7305    1.5972 H         1 UNK         0.0616 
    135 H135       34.5819   29.2305    2.0578 H         1 UNK         0.0616 
    136 H136       32.5488   27.0657    0.0421 H         1 UNK         0.0634 
    137 H137       32.6805   28.4100    1.1406 H         1 UNK         0.0634 
@<TRIPOS>BOND
     1    1    2 1    
     2    1   72 1    
     3    1   73 1    
     4    1   74 1    
     5    2    3 2    
     6    2    4 am   BACKBONE|DICT|INTERRES
     7    4    5 1    
     8    4   75 1    
     9    5    6 1    
    10    5   35 1    
    11    5   76 1    
    12    6    7 1    
    13    6   77 1    
    14    6   78 1    
    15    7    8 1    
    16    8    9 1    
    17    8   79 1    
    18    8   80 1    
    19    9   10 ar   
    20    9   14 ar   
    21   10   11 ar   
    22   10   81 1    
    23   11   12 ar   
    24   11   71 1    
    25   12   13 ar   
    26   12   82 1    
    27   13   14 ar   
    28   13   15 1    
    29   14   83 1    
    30   15   16 1    
    31   15   84 1    
    32   15   85 1    
    33   16   17 1    
    34   17   18 1    
    35   17   86 1    
    36   17   87 1    
    37   18   19 1    
    38   18   37 1    
    39   18   88 1    
    40   19   20 am   BACKBONE|DICT|INTERRES
    41   19   89 1    
    42   20   21 2    
    43   20   22 1    
    44   22   23 1    
    45   22   24 1    
    46   22   90 1    
    47   23   91 1    
    48   23   92 1    
    49   23   93 1    
    50   24   25 am   BACKBONE|DICT|INTERRES
    51   24   94 1    
    52   25   26 2    
    53   25   27 1    
    54   27   28 1    
    55   27   29 1    
    56   27   95 1    
    57   28   96 1    
    58   28   97 1    
    59   28   98 1    
    60   29   30 am   BACKBONE|DICT|INTERRES
    61   29   99 1    
    62   30   31 2    
    63   30   32 1    
    64   32   33 1    
    65   32   34 1    
    66   32  100 1    
    67   33  101 1    
    68   33  102 1    
    69   33  103 1    
    70   34   35 am   BACKBONE|DICT|INTERRES
    71   34  104 1    
    72   35   36 2    
    73   37   38 2    
    74   37   39 am   BACKBONE|DICT|INTERRES
    75   39   40 1    
    76   39  105 1    
    77   40   41 1    
    78   40   42 1    
    79   40  106 1    
    80   41  107 1    
    81   41  108 1    
    82   41  109 1    
    83   42   43 2    
    84   42   44 am   BACKBONE|DICT|INTERRES
    85   44   45 1    
    86   44  110 1    
    87   45   46 1    
    88   45   47 1    
    89   45  111 1    
    90   46  112 1    
    91   46  113 1    
    92   46  114 1    
    93   47   48 2    
    94   47   49 am   BACKBONE|DICT|INTERRES
    95   49   50 1    
    96   49  115 1    
    97   50   51 1    
    98   50   52 1    
    99   50  116 1    
   100   51  117 1    
   101   51  118 1    
   102   51  119 1    
   103   52   53 2    
   104   52   54 am   BACKBONE|DICT|INTERRES
   105   54   55 1    
   106   54  120 1    
   107   55   56 1    
   108   55   57 1    
   109   55  121 1    
   110   56  122 1    
   111   56  123 1    
   112   56  124 1    
   113   57   58 2    
   114   57   59 am   BACKBONE|DICT|INTERRES
   115   59   60 1    
   116   59  125 1    
   117   60   61 1    
   118   60   62 1    
   119   60  126 1    
   120   61  127 1    
   121   61  128 1    
   122   61  129 1    
   123   62   63 2    
   124   62   64 am   BACKBONE|DICT|INTERRES
   125   64   65 1    
   126   64  130 1    
   127   65   66 1    
   128   65   69 1    
   129   65  131 1    
   130   66   67 am   BACKBONE|DICT|INTERRES
   131   66   68 2    
   132   67  132 1    
   133   67  133 1    
   134   69   70 1    
   135   69  134 1    
   136   69  135 1    
   137   70   71 1    
   138   71  136 1    
   139   71  137 1    
@<TRIPOS>SUBSTRUCTURE
     1 UNK         1 GROUP             0       ****    0 ROOT    
