@<TRIPOS>MOLECULE
3R136
137   139    1
SMALL
USER_CHARGES


@<TRIPOS>ATOM
      1 CA         27.2336   18.5340   -2.0705 C.3       0 UNK        -0.1979 
      2 C          27.3864   20.0463   -2.0179 C.2       0 UNK         0.4864 
      3 O          26.4716   20.7693   -2.4165 O.2       0 UNK        -0.5359 
      4 N          28.5280   20.5363   -1.5101 N.am      1 UNK        -0.4318 
      5 CA         28.8620   21.9656   -1.4117 C.3       1 UNK         0.0824 
      6 C6         30.3701   22.1762   -1.1086 C.3       12 UNK        -0.0944 
      7 S7         30.8566   21.9760    0.6477 S.3       12 UNK        -0.2672 
      8 C8         31.4101   23.6707    1.0231 C.3       12 UNK         0.0333 
      9 C9         31.1113   24.0966    2.4522 C.ar      12 UNK        -0.0807 
     10 C10        32.1505   24.4277    3.3244 C.ar      12 UNK        -0.0894 
     11 C11        31.8732   24.9568    4.5883 C.ar      12 UNK        -0.0804 
     12 C12        30.5455   25.1757    4.9691 C.ar      12 UNK        -0.0824 
     13 C13        29.4940   24.8409    4.1082 C.ar      12 UNK        -0.0762 
     14 C14        29.7882   24.2589    2.8705 C.ar      12 UNK        -0.0782 
     15 C15        28.0518   25.1246    4.5274 C.3       12 UNK         0.0230 
     16 S16        26.9854   25.7812    3.1912 S.3       12 UNK        -0.2608 
     17 C17        27.9136   27.2289    2.5861 C.3       12 UNK        -0.0989 
     18 CA         28.5336   26.9901    1.1766 C.3       5 UNK         0.0716 
     19 N          27.5564   26.7111    0.1166 N.am      5 UNK        -0.4135 
     20 C          26.5513   27.4886   -0.3106 C.2       4 UNK         0.5031 
     21 O          26.2234   28.5566    0.2086 O.2       4 UNK        -0.5229 
     22 CA         25.7709   26.9888   -1.5350 C.3       4 UNK         0.0329 
     23 CB         26.6128   27.1229   -2.8161 C.3       4 UNK        -0.2001 
     24 N          25.3384   25.5979   -1.3769 N.am      4 UNK        -0.4303 
     25 C          24.0806   25.1651   -1.5536 C.2       3 UNK         0.5044 
     26 O          23.1443   25.8972   -1.8783 O.2       3 UNK        -0.5152 
     27 CA         23.8004   23.6610   -1.3525 C.3       3 UNK         0.0319 
     28 CB         23.6848   22.9521   -2.7115 C.3       3 UNK        -0.2001 
     29 N          24.8101   22.9734   -0.5463 N.am      3 UNK        -0.4354 
     30 C          25.0242   23.1911    0.7598 C.2       2 UNK         0.4964 
     31 O          24.3035   23.9077    1.4540 O.2       2 UNK        -0.5047 
     32 CA         26.2533   22.5192    1.4024 C.3       2 UNK         0.0288 
     33 CB         25.8206   21.3516    2.3036 C.3       2 UNK        -0.2113 
     34 N          27.2598   22.0359    0.4538 N.am      2 UNK        -0.4145 
     35 C          27.9278   22.7556   -0.4627 C.2       1 UNK         0.5006 
     36 O          27.8026   23.9754   -0.6025 O.2       1 UNK        -0.5103 
     37 C          29.5402   28.1018    0.8156 C.2       5 UNK         0.5055 
     38 O          29.2778   28.9596   -0.0290 O.2       5 UNK        -0.5220 
     39 N          30.6836   28.0758    1.5131 N.am      6 UNK        -0.4450 
     40 CA         31.7117   29.1209    1.4985 C.3       6 UNK         0.0367 
     41 CB         33.0997   28.4604    1.4116 C.3       6 UNK        -0.1929 
     42 C          31.5800   30.0246    2.7396 C.2       6 UNK         0.5070 
     43 O          32.5867   30.5263    3.2452 O.2       6 UNK        -0.5237 
     44 N          30.3460   30.1883    3.2376 N.am      7 UNK        -0.4739 
     45 CA         29.9984   30.9774    4.4190 C.3       7 UNK         0.0276 
     46 CB         28.4987   30.8152    4.7119 C.3       7 UNK        -0.1927 
     47 C          30.3643   32.4578    4.2372 C.2       7 UNK         0.5013 
     48 O          30.0738   33.0267    3.1828 O.2       7 UNK        -0.5193 
     49 N          31.0351   33.0320    5.2436 N.am      8 UNK        -0.4253 
     50 CA         31.6101   34.3839    5.3139 C.3       8 UNK         0.0242 
     51 CB         30.5462   35.4792    5.1012 C.3       8 UNK        -0.2000 
     52 C          32.8314   34.5990    4.3996 C.2       8 UNK         0.4948 
     53 O          33.7323   35.3467    4.7816 O.2       8 UNK        -0.5275 
     54 N          32.8657   33.9350    3.2360 N.am      9 UNK        -0.4246 
     55 CA         34.0001   33.9031    2.3111 C.3       9 UNK         0.0261 
     56 CB         33.5666   33.2542    0.9863 C.3       9 UNK        -0.1959 
     57 C          35.2187   33.1738    2.9021 C.2       9 UNK         0.5033 
     58 O          36.3450   33.6390    2.7192 O.2       9 UNK        -0.5390 
     59 N          34.9711   32.0643    3.6094 N.am      10 UNK        -0.4215 
     60 CA         35.9850   31.2817    4.3149 C.3       10 UNK         0.0240 
     61 CB         36.5906   30.2242    3.3738 C.3       10 UNK        -0.1982 
     62 C          35.4142   30.6290    5.5802 C.2       10 UNK         0.4970 
     63 O          36.0537   30.6953    6.6307 O.2       10 UNK        -0.4916 
     64 N          34.2411   29.9990    5.4584 N.am      11 UNK        -0.4279 
     65 CA         33.5689   29.2595    6.5350 C.3       11 UNK         0.1003 
     66 C          32.7244   30.1861    7.4491 C.2       11 UNK         0.5709 
     67 N          32.4334   29.7523    8.6673 N.am      11 UNK        -0.7358 
     68 O          32.3030   31.2753    7.0630 O.2       11 UNK        -0.4999 
     69 C69        32.7244   28.0915    5.9598 C.3       12 UNK        -0.0954 
     70 S70        33.7855   26.8857    5.0920 S.3       12 UNK        -0.2268 
     71 C71        33.0176   25.2972    5.5299 C.3       12 UNK         0.0203 
     72 H72        26.3676   18.2240   -1.4863 H         1 UNK         0.0888 
     73 H73        27.0845   18.2089   -3.0998 H         1 UNK         0.0888 
     74 H74        28.1108   18.0212   -1.6764 H         1 UNK         0.0888 
     75 H75        29.2409   19.8989   -1.1829 H         1 UNK         0.3017 
     76 H76        28.6817   22.3811   -2.4059 H         1 UNK         0.0873 
     77 H77        30.6663   23.1643   -1.4632 H         1 UNK         0.0745 
     78 H78        30.9692   21.4847   -1.7035 H         1 UNK         0.0745 
     79 H79        30.9145   24.3854    0.3650 H         1 UNK         0.0705 
     80 H80        32.4765   23.7470    0.8049 H         1 UNK         0.0705 
     81 H81        33.1786   24.3006    3.0132 H         1 UNK         0.1334 
     82 H82        30.3330   25.6097    5.9367 H         1 UNK         0.1417 
     83 H83        28.9863   23.9903    2.1977 H         1 UNK         0.1562 
     84 H84        28.0299   25.8341    5.3562 H         1 UNK         0.0748 
     85 H85        27.6103   24.2003    4.9020 H         1 UNK         0.0748 
     86 H86        28.6809   27.4708    3.3236 H         1 UNK         0.0940 
     87 H87        27.2411   28.0878    2.5739 H         1 UNK         0.0940 
     88 H88        29.1306   26.0841    1.2069 H         1 UNK         0.0703 
     89 H89        27.7124   25.8275   -0.3601 H         1 UNK         0.3081 
     90 H90        24.9031   27.6438   -1.6382 H         1 UNK         0.0719 
     91 H91        26.9756   28.1443   -2.9400 H         1 UNK         0.0809 
     92 H92        27.4830   26.4656   -2.8020 H         1 UNK         0.0809 
     93 H93        26.0245   26.8784   -3.7006 H         1 UNK         0.0809 
     94 H94        26.0435   24.9287   -1.0890 H         1 UNK         0.2990 
     95 H95        22.8413   23.5736   -0.8378 H         1 UNK         0.0690 
     96 H96        24.6229   22.9915   -3.2671 H         1 UNK         0.0788 
     97 H97        22.9169   23.4161   -3.3321 H         1 UNK         0.0788 
     98 H98        23.4128   21.9033   -2.5905 H         1 UNK         0.0788 
     99 H99        25.4280   22.3414   -1.0411 H         1 UNK         0.2993 
    100 H100       26.7355   23.2670    2.0282 H         1 UNK         0.0949 
    101 H101       25.3544   20.5501    1.7291 H         1 UNK         0.0767 
    102 H102       26.6693   20.9311    2.8437 H         1 UNK         0.0767 
    103 H103       25.0971   21.6817    3.0507 H         1 UNK         0.0767 
    104 H104       27.4470   21.0442    0.4765 H         1 UNK         0.3013 
    105 H105       30.8221   27.3397    2.1927 H         1 UNK         0.3121 
    106 H106       31.5901   29.7632    0.6240 H         1 UNK         0.0774 
    107 H107       33.8876   29.2111    1.3373 H         1 UNK         0.0815 
    108 H108       33.3119   27.8488    2.2886 H         1 UNK         0.0815 
    109 H109       33.1801   27.8226    0.5314 H         1 UNK         0.0815 
    110 H110       29.5757   29.7943    2.7202 H         1 UNK         0.2987 
    111 H111       30.5573   30.5693    5.2614 H         1 UNK         0.0949 
    112 H112       28.2133   31.3768    5.6025 H         1 UNK         0.0806 
    113 H113       27.8848   31.1791    3.8868 H         1 UNK         0.0806 
    114 H114       28.2381   29.7719    4.8914 H         1 UNK         0.0806 
    115 H115       31.3105   32.4291    6.0181 H         1 UNK         0.3010 
    116 H116       31.9765   34.4822    6.3372 H         1 UNK         0.0829 
    117 H117       29.7016   35.3491    5.7776 H         1 UNK         0.0813 
    118 H118       30.9663   36.4674    5.2931 H         1 UNK         0.0813 
    119 H119       30.1624   35.4874    4.0808 H         1 UNK         0.0813 
    120 H120       32.0473   33.3885    2.9892 H         1 UNK         0.3038 
    121 H121       34.2947   34.9347    2.1070 H         1 UNK         0.0769 
    122 H122       32.7422   33.8006    0.5279 H         1 UNK         0.0811 
    123 H123       34.3889   33.2475    0.2695 H         1 UNK         0.0811 
    124 H124       33.2478   32.2206    1.1248 H         1 UNK         0.0811 
    125 H125       34.0131   31.7261    3.6597 H         1 UNK         0.3204 
    126 H126       36.7849   31.9505    4.6405 H         1 UNK         0.0748 
    127 H127       37.0801   30.6890    2.5179 H         1 UNK         0.0771 
    128 H128       37.3415   29.6250    3.8907 H         1 UNK         0.0771 
    129 H129       35.8305   29.5402    2.9941 H         1 UNK         0.0771 
    130 H130       33.7400   30.0305    4.5752 H         1 UNK         0.2980 
    131 H131       34.3408   28.8208    7.1709 H         1 UNK         0.0545 
    132 H132       31.8779   30.3359    9.2726 H         1 UNK         0.3459 
    133 H133       32.7653   28.8601    8.9988 H         1 UNK         0.3459 
    134 H134       32.1875   27.5797    6.7599 H         1 UNK         0.0616 
    135 H135       31.9661   28.4557    5.2661 H         1 UNK         0.0616 
    136 H136       32.6845   25.3082    6.5686 H         1 UNK         0.0634 
    137 H137       33.7776   24.5171    5.4666 H         1 UNK         0.0634 
@<TRIPOS>BOND
     1    1    2 1    
     2    1   72 1    
     3    1   73 1    
     4    1   74 1    
     5    2    3 2    
     6    2    4 am   BACKBONE|DICT|INTERRES
     7    4    5 1    
     8    4   75 1    
     9    5    6 1    
    10    5   35 1    
    11    5   76 1    
    12    6    7 1    
    13    6   77 1    
    14    6   78 1    
    15    7    8 1    
    16    8    9 1    
    17    8   79 1    
    18    8   80 1    
    19    9   10 ar   
    20    9   14 ar   
    21   10   11 ar   
    22   10   81 1    
    23   11   12 ar   
    24   11   71 1    
    25   12   13 ar   
    26   12   82 1    
    27   13   14 ar   
    28   13   15 1    
    29   14   83 1    
    30   15   16 1    
    31   15   84 1    
    32   15   85 1    
    33   16   17 1    
    34   17   18 1    
    35   17   86 1    
    36   17   87 1    
    37   18   19 1    
    38   18   37 1    
    39   18   88 1    
    40   19   20 am   BACKBONE|DICT|INTERRES
    41   19   89 1    
    42   20   21 2    
    43   20   22 1    
    44   22   23 1    
    45   22   24 1    
    46   22   90 1    
    47   23   91 1    
    48   23   92 1    
    49   23   93 1    
    50   24   25 am   BACKBONE|DICT|INTERRES
    51   24   94 1    
    52   25   26 2    
    53   25   27 1    
    54   27   28 1    
    55   27   29 1    
    56   27   95 1    
    57   28   96 1    
    58   28   97 1    
    59   28   98 1    
    60   29   30 am   BACKBONE|DICT|INTERRES
    61   29   99 1    
    62   30   31 2    
    63   30   32 1    
    64   32   33 1    
    65   32   34 1    
    66   32  100 1    
    67   33  101 1    
    68   33  102 1    
    69   33  103 1    
    70   34   35 am   BACKBONE|DICT|INTERRES
    71   34  104 1    
    72   35   36 2    
    73   37   38 2    
    74   37   39 am   BACKBONE|DICT|INTERRES
    75   39   40 1    
    76   39  105 1    
    77   40   41 1    
    78   40   42 1    
    79   40  106 1    
    80   41  107 1    
    81   41  108 1    
    82   41  109 1    
    83   42   43 2    
    84   42   44 am   BACKBONE|DICT|INTERRES
    85   44   45 1    
    86   44  110 1    
    87   45   46 1    
    88   45   47 1    
    89   45  111 1    
    90   46  112 1    
    91   46  113 1    
    92   46  114 1    
    93   47   48 2    
    94   47   49 am   BACKBONE|DICT|INTERRES
    95   49   50 1    
    96   49  115 1    
    97   50   51 1    
    98   50   52 1    
    99   50  116 1    
   100   51  117 1    
   101   51  118 1    
   102   51  119 1    
   103   52   53 2    
   104   52   54 am   BACKBONE|DICT|INTERRES
   105   54   55 1    
   106   54  120 1    
   107   55   56 1    
   108   55   57 1    
   109   55  121 1    
   110   56  122 1    
   111   56  123 1    
   112   56  124 1    
   113   57   58 2    
   114   57   59 am   BACKBONE|DICT|INTERRES
   115   59   60 1    
   116   59  125 1    
   117   60   61 1    
   118   60   62 1    
   119   60  126 1    
   120   61  127 1    
   121   61  128 1    
   122   61  129 1    
   123   62   63 2    
   124   62   64 am   BACKBONE|DICT|INTERRES
   125   64   65 1    
   126   64  130 1    
   127   65   66 1    
   128   65   69 1    
   129   65  131 1    
   130   66   67 am   BACKBONE|DICT|INTERRES
   131   66   68 2    
   132   67  132 1    
   133   67  133 1    
   134   69   70 1    
   135   69  134 1    
   136   69  135 1    
   137   70   71 1    
   138   71  136 1    
   139   71  137 1    
@<TRIPOS>SUBSTRUCTURE
     1 UNK         1 GROUP             0       ****    0 ROOT    
