@<TRIPOS>MOLECULE
3R136
137   139    1
SMALL
USER_CHARGES


@<TRIPOS>ATOM
      1 CA         28.4527   20.0397    3.7461 C.3       0 UNK        -0.1979 
      2 C          28.7886   20.1415    2.2655 C.2       0 UNK         0.4864 
      3 O          29.1589   19.1382    1.6539 O.2       0 UNK        -0.5359 
      4 N          28.6567   21.3429    1.6938 N.am      1 UNK        -0.4318 
      5 CA         28.8707   21.6499    0.2783 C.3       1 UNK         0.0824 
      6 C6         30.1306   22.5248    0.0392 C.3       12 UNK        -0.0944 
      7 S7         31.6798   21.6988    0.5478 S.3       12 UNK        -0.2672 
      8 C8         32.7265   23.1052    1.0821 C.3       12 UNK         0.0333 
      9 C9         32.2530   23.8877    2.3119 C.ar      12 UNK        -0.0807 
     10 C10        32.9211   25.0693    2.6503 C.ar      12 UNK        -0.0894 
     11 C11        32.4977   25.8488    3.7322 C.ar      12 UNK        -0.0804 
     12 C12        31.3885   25.4460    4.4806 C.ar      12 UNK        -0.0824 
     13 C13        30.7091   24.2704    4.1553 C.ar      12 UNK        -0.0762 
     14 C14        31.1695   23.4818    3.0993 C.ar      12 UNK        -0.0782 
     15 C15        29.4573   23.8512    4.9093 C.3       12 UNK         0.0230 
     16 S16        27.9827   24.0275    3.8507 S.3       12 UNK        -0.2608 
     17 C17        27.3576   25.6782    4.3096 C.3       12 UNK        -0.0989 
     18 CA         28.1020   26.8653    3.6476 C.3       5 UNK         0.0716 
     19 N          28.1868   26.7551    2.1848 N.am      5 UNK        -0.4135 
     20 C          28.8220   27.6250    1.3830 C.2       4 UNK         0.5031 
     21 O          29.4126   28.6240    1.7910 O.2       4 UNK        -0.5229 
     22 CA         28.7293   27.3993   -0.1350 C.3       4 UNK         0.0329 
     23 CB         29.9415   26.5988   -0.6339 C.3       4 UNK        -0.2001 
     24 N          27.4944   26.7618   -0.6057 N.am      4 UNK        -0.4303 
     25 C          26.2387   27.1581   -0.3562 C.2       3 UNK         0.5044 
     26 O          25.9534   28.0611    0.4316 O.2       3 UNK        -0.5152 
     27 CA         25.0952   26.4361   -1.0977 C.3       3 UNK         0.0319 
     28 CB         24.7377   27.1817   -2.3979 C.3       3 UNK        -0.2001 
     29 N          25.2937   24.9988   -1.3486 N.am      3 UNK        -0.4354 
     30 C          26.2053   24.3884   -2.1198 C.2       2 UNK         0.4964 
     31 O          27.0911   24.9731   -2.7461 O.2       2 UNK        -0.5047 
     32 CA         26.1425   22.8525   -2.1655 C.3       2 UNK         0.0288 
     33 CB         26.0450   22.3456   -3.6147 C.3       2 UNK        -0.2113 
     34 N          27.3074   22.2455   -1.5164 N.am      2 UNK        -0.4145 
     35 C          27.6075   22.3735   -0.2166 C.2       1 UNK         0.5006 
     36 O          26.9318   23.0334    0.5794 O.2       1 UNK        -0.5103 
     37 C          27.4904   28.1975    4.1366 C.2       5 UNK         0.5055 
     38 O          27.8243   28.6357    5.2384 O.2       5 UNK        -0.5220 
     39 N          26.6452   28.8413    3.3140 N.am      6 UNK        -0.4450 
     40 CA         26.0602   30.1585    3.5839 C.3       6 UNK         0.0367 
     41 CB         25.0022   30.4729    2.5145 C.3       6 UNK        -0.1929 
     42 C          27.0940   31.2993    3.6663 C.2       6 UNK         0.5070 
     43 O          26.7971   32.3275    4.2748 O.2       6 UNK        -0.5237 
     44 N          28.2856   31.1065    3.0805 N.am      7 UNK        -0.4739 
     45 CA         29.4062   32.0472    3.1578 C.3       7 UNK         0.0276 
     46 CB         30.2953   31.8635    1.9210 C.3       7 UNK        -0.1927 
     47 C          30.2342   31.9008    4.4494 C.2       7 UNK         0.5013 
     48 O          31.1379   32.7131    4.6661 O.2       7 UNK        -0.5193 
     49 N          29.9313   30.8799    5.2698 N.am      8 UNK        -0.4253 
     50 CA         30.4832   30.5343    6.5891 C.3       8 UNK         0.0242 
     51 CB         30.1686   31.6323    7.6237 C.3       8 UNK        -0.2000 
     52 C          31.9795   30.1738    6.6064 C.2       8 UNK         0.4948 
     53 O          32.3430   29.1289    7.1472 O.2       8 UNK        -0.5275 
     54 N          32.8093   31.0460    6.0314 N.am      9 UNK        -0.4246 
     55 CA         34.2572   30.9046    5.8979 C.3       9 UNK         0.0261 
     56 CB         34.9585   31.6119    7.0699 C.3       9 UNK        -0.1959 
     57 C          34.7725   31.4325    4.5501 C.2       9 UNK         0.5033 
     58 O          35.8194   30.9674    4.0984 O.2       9 UNK        -0.5390 
     59 N          34.0447   32.3526    3.8956 N.am      10 UNK        -0.4215 
     60 CA         34.3948   32.9240    2.5875 C.3       10 UNK         0.0240 
     61 CB         33.8278   34.3542    2.5066 C.3       10 UNK        -0.1982 
     62 C          33.9145   32.0301    1.4245 C.2       10 UNK         0.4970 
     63 O          33.3624   32.5309    0.4438 O.2       10 UNK        -0.4916 
     64 N          34.0926   30.7156    1.5814 N.am      11 UNK        -0.4279 
     65 CA         33.5030   29.6607    0.7449 C.3       11 UNK         0.1003 
     66 C          34.2021   29.4388   -0.6268 C.2       11 UNK         0.5709 
     67 N          35.3394   30.0650   -0.9048 N.am      11 UNK        -0.7358 
     68 O          33.6976   28.6884   -1.4585 O.2       11 UNK        -0.4999 
     69 C69        33.3741   28.3320    1.5357 C.3       12 UNK        -0.0954 
     70 S70        32.5471   28.5438    3.1517 S.3       12 UNK        -0.2268 
     71 C71        33.2213   27.1383    4.0849 C.3       12 UNK         0.0203 
     72 H72        27.7786   19.2020    3.9226 H         1 UNK         0.0888 
     73 H73        29.3606   19.8760    4.3258 H         1 UNK         0.0888 
     74 H74        27.9689   20.9429    4.1171 H         1 UNK         0.0888 
     75 H75        28.2593   22.1122    2.2207 H         1 UNK         0.3017 
     76 H76        28.9686   20.7252   -0.2945 H         1 UNK         0.0873 
     77 H77        30.2263   22.7830   -1.0172 H         1 UNK         0.0745 
     78 H78        30.0338   23.4690    0.5751 H         1 UNK         0.0745 
     79 H79        33.7272   22.7216    1.2853 H         1 UNK         0.0705 
     80 H80        32.8254   23.7925    0.2403 H         1 UNK         0.0705 
     81 H81        33.7671   25.3929    2.0597 H         1 UNK         0.1334 
     82 H82        31.0451   26.0598    5.3024 H         1 UNK         0.1417 
     83 H83        30.6463   22.5663    2.8774 H         1 UNK         0.1562 
     84 H84        29.3376   24.4237    5.8302 H         1 UNK         0.0748 
     85 H85        29.5545   22.8069    5.2093 H         1 UNK         0.0748 
     86 H86        27.3879   25.7661    5.3978 H         1 UNK         0.0940 
     87 H87        26.2994   25.7057    4.0415 H         1 UNK         0.0940 
     88 H88        29.1298   26.8630    4.0088 H         1 UNK         0.0703 
     89 H89        27.7253   25.9592    1.7684 H         1 UNK         0.3081 
     90 H90        28.7643   28.3856   -0.6020 H         1 UNK         0.0719 
     91 H91        29.9673   25.6001   -0.2018 H         1 UNK         0.0809 
     92 H92        29.9344   26.4970   -1.7192 H         1 UNK         0.0809 
     93 H93        30.8738   27.0955   -0.3629 H         1 UNK         0.0809 
     94 H94        27.5984   26.0363   -1.3104 H         1 UNK         0.2990 
     95 H95        24.2260   26.4961   -0.4408 H         1 UNK         0.0690 
     96 H96        23.8700   26.7366   -2.8847 H         1 UNK         0.0788 
     97 H97        25.5623   27.1768   -3.1115 H         1 UNK         0.0788 
     98 H98        24.4941   28.2252   -2.1933 H         1 UNK         0.0788 
     99 H99        24.6669   24.4001   -0.8279 H         1 UNK         0.2993 
    100 H100       25.2500   22.5181   -1.6319 H         1 UNK         0.0949 
    101 H101       26.9295   22.6087   -4.1967 H         1 UNK         0.0767 
    102 H102       25.9300   21.2620   -3.6499 H         1 UNK         0.0767 
    103 H103       25.1814   22.7787   -4.1214 H         1 UNK         0.0767 
    104 H104       27.9256   21.7136   -2.1119 H         1 UNK         0.3013 
    105 H105       26.4429   28.4385    2.4034 H         1 UNK         0.3121 
    106 H106       25.5603   30.1046    4.5533 H         1 UNK         0.0774 
    107 H107       25.4458   30.5499    1.5210 H         1 UNK         0.0815 
    108 H108       24.5048   31.4209    2.7236 H         1 UNK         0.0815 
    109 H109       24.2309   29.7033    2.4782 H         1 UNK         0.0815 
    110 H110       28.4733   30.2252    2.6097 H         1 UNK         0.2987 
    111 H111       29.0139   33.0664    3.1406 H         1 UNK         0.0949 
    112 H112       30.8210   30.9088    1.9431 H         1 UNK         0.0806 
    113 H113       29.7169   31.9085    0.9983 H         1 UNK         0.0806 
    114 H114       31.0451   32.6520    1.8688 H         1 UNK         0.0806 
    115 H115       29.1909   30.2583    4.9636 H         1 UNK         0.3010 
    116 H116       29.9470   29.6351    6.8975 H         1 UNK         0.0829 
    117 H117       29.0956   31.8106    7.6952 H         1 UNK         0.0813 
    118 H118       30.5156   31.3429    8.6165 H         1 UNK         0.0813 
    119 H119       30.6488   32.5794    7.3758 H         1 UNK         0.0813 
    120 H120       32.3656   31.8507    5.5948 H         1 UNK         0.3038 
    121 H121       34.5132   29.8432    5.9303 H         1 UNK         0.0769 
    122 H122       34.7206   32.6759    7.0982 H         1 UNK         0.0811 
    123 H123       36.0426   31.5196    6.9906 H         1 UNK         0.0811 
    124 H124       34.6659   31.1773    8.0259 H         1 UNK         0.0811 
    125 H125       33.1543   32.6528    4.2743 H         1 UNK         0.3204 
    126 H126       35.4814   32.9953    2.5053 H         1 UNK         0.0748 
    127 H127       34.1076   34.8370    1.5693 H         1 UNK         0.0771 
    128 H128       32.7388   34.3610    2.5673 H         1 UNK         0.0771 
    129 H129       34.2111   34.9775    3.3148 H         1 UNK         0.0771 
    130 H130       34.5945   30.4018    2.4021 H         1 UNK         0.2980 
    131 H131       32.4893   29.9806    0.4978 H         1 UNK         0.0545 
    132 H132       35.7803   29.9165   -1.7987 H         1 UNK         0.3459 
    133 H133       35.7553   30.6879   -0.2315 H         1 UNK         0.3459 
    134 H134       34.3633   27.9009    1.6986 H         1 UNK         0.0616 
    135 H135       32.8064   27.5973    0.9633 H         1 UNK         0.0616 
    136 H136       33.1129   27.3451    5.1504 H         1 UNK         0.0634 
    137 H137       34.2927   27.0426    3.9038 H         1 UNK         0.0634 
@<TRIPOS>BOND
     1    1    2 1    
     2    1   72 1    
     3    1   73 1    
     4    1   74 1    
     5    2    3 2    
     6    2    4 am   BACKBONE|DICT|INTERRES
     7    4    5 1    
     8    4   75 1    
     9    5    6 1    
    10    5   35 1    
    11    5   76 1    
    12    6    7 1    
    13    6   77 1    
    14    6   78 1    
    15    7    8 1    
    16    8    9 1    
    17    8   79 1    
    18    8   80 1    
    19    9   10 ar   
    20    9   14 ar   
    21   10   11 ar   
    22   10   81 1    
    23   11   12 ar   
    24   11   71 1    
    25   12   13 ar   
    26   12   82 1    
    27   13   14 ar   
    28   13   15 1    
    29   14   83 1    
    30   15   16 1    
    31   15   84 1    
    32   15   85 1    
    33   16   17 1    
    34   17   18 1    
    35   17   86 1    
    36   17   87 1    
    37   18   19 1    
    38   18   37 1    
    39   18   88 1    
    40   19   20 am   BACKBONE|DICT|INTERRES
    41   19   89 1    
    42   20   21 2    
    43   20   22 1    
    44   22   23 1    
    45   22   24 1    
    46   22   90 1    
    47   23   91 1    
    48   23   92 1    
    49   23   93 1    
    50   24   25 am   BACKBONE|DICT|INTERRES
    51   24   94 1    
    52   25   26 2    
    53   25   27 1    
    54   27   28 1    
    55   27   29 1    
    56   27   95 1    
    57   28   96 1    
    58   28   97 1    
    59   28   98 1    
    60   29   30 am   BACKBONE|DICT|INTERRES
    61   29   99 1    
    62   30   31 2    
    63   30   32 1    
    64   32   33 1    
    65   32   34 1    
    66   32  100 1    
    67   33  101 1    
    68   33  102 1    
    69   33  103 1    
    70   34   35 am   BACKBONE|DICT|INTERRES
    71   34  104 1    
    72   35   36 2    
    73   37   38 2    
    74   37   39 am   BACKBONE|DICT|INTERRES
    75   39   40 1    
    76   39  105 1    
    77   40   41 1    
    78   40   42 1    
    79   40  106 1    
    80   41  107 1    
    81   41  108 1    
    82   41  109 1    
    83   42   43 2    
    84   42   44 am   BACKBONE|DICT|INTERRES
    85   44   45 1    
    86   44  110 1    
    87   45   46 1    
    88   45   47 1    
    89   45  111 1    
    90   46  112 1    
    91   46  113 1    
    92   46  114 1    
    93   47   48 2    
    94   47   49 am   BACKBONE|DICT|INTERRES
    95   49   50 1    
    96   49  115 1    
    97   50   51 1    
    98   50   52 1    
    99   50  116 1    
   100   51  117 1    
   101   51  118 1    
   102   51  119 1    
   103   52   53 2    
   104   52   54 am   BACKBONE|DICT|INTERRES
   105   54   55 1    
   106   54  120 1    
   107   55   56 1    
   108   55   57 1    
   109   55  121 1    
   110   56  122 1    
   111   56  123 1    
   112   56  124 1    
   113   57   58 2    
   114   57   59 am   BACKBONE|DICT|INTERRES
   115   59   60 1    
   116   59  125 1    
   117   60   61 1    
   118   60   62 1    
   119   60  126 1    
   120   61  127 1    
   121   61  128 1    
   122   61  129 1    
   123   62   63 2    
   124   62   64 am   BACKBONE|DICT|INTERRES
   125   64   65 1    
   126   64  130 1    
   127   65   66 1    
   128   65   69 1    
   129   65  131 1    
   130   66   67 am   BACKBONE|DICT|INTERRES
   131   66   68 2    
   132   67  132 1    
   133   67  133 1    
   134   69   70 1    
   135   69  134 1    
   136   69  135 1    
   137   70   71 1    
   138   71  136 1    
   139   71  137 1    
@<TRIPOS>SUBSTRUCTURE
     1 UNK         1 GROUP             0       ****    0 ROOT    
