@<TRIPOS>MOLECULE
3R136
137   139    1
SMALL
USER_CHARGES


@<TRIPOS>ATOM
      1 CA         28.5045   19.1990   -2.2714 C.3       0 UNK        -0.1979 
      2 C          28.5936   20.6810   -2.6050 C.2       0 UNK         0.4864 
      3 O          28.4894   21.0516   -3.7755 O.2       0 UNK        -0.5359 
      4 N          28.7925   21.5295   -1.5876 N.am      1 UNK        -0.4318 
      5 CA         28.8344   22.9892   -1.7121 C.3       1 UNK         0.0824 
      6 C6         29.4682   23.6331   -0.4557 C.3       12 UNK        -0.0944 
      7 S7         30.1569   25.2893   -0.7903 S.3       12 UNK        -0.2672 
      8 C8         31.8700   25.1159   -0.1907 C.3       12 UNK         0.0333 
      9 C9         31.9558   25.1749    1.3298 C.ar      12 UNK        -0.0807 
     10 C10        32.0332   26.4112    1.9781 C.ar      12 UNK        -0.0894 
     11 C11        32.1330   26.4936    3.3717 C.ar      12 UNK        -0.0804 
     12 C12        32.1700   25.3049    4.1138 C.ar      12 UNK        -0.0824 
     13 C13        32.0320   24.0643    3.4842 C.ar      12 UNK        -0.0762 
     14 C14        31.9534   24.0023    2.0905 C.ar      12 UNK        -0.0782 
     15 C15        31.8814   22.7999    4.3175 C.3       12 UNK         0.0230 
     16 S16        30.1229   22.3289    4.4892 S.3       12 UNK        -0.2608 
     17 C17        29.4267   23.7481    5.4087 C.3       12 UNK        -0.0989 
     18 CA         28.8243   24.8176    4.4592 C.3       5 UNK         0.0716 
     19 N          27.6275   24.3471    3.7546 N.am      5 UNK        -0.4135 
     20 C          27.2333   24.8361    2.5722 C.2       4 UNK         0.5031 
     21 O          27.8847   25.6808    1.9525 O.2       4 UNK        -0.5229 
     22 CA         25.9267   24.2834    1.9655 C.3       4 UNK         0.0329 
     23 CB         24.7927   24.1155    3.0016 C.3       4 UNK        -0.2001 
     24 N          25.5071   25.0988    0.8172 N.am      4 UNK        -0.4303 
     25 C          25.1131   26.3844    0.8384 C.2       3 UNK         0.5044 
     26 O          24.7525   26.9761    1.8574 O.2       3 UNK        -0.5152 
     27 CA         25.1815   27.1719   -0.4855 C.3       3 UNK         0.0319 
     28 CB         25.9725   28.4799   -0.2943 C.3       3 UNK        -0.2001 
     29 N          25.8147   26.4075   -1.5645 N.am      3 UNK        -0.4354 
     30 C          25.1561   25.7028   -2.4925 C.2       2 UNK         0.4964 
     31 O          23.9285   25.6414   -2.5652 O.2       2 UNK        -0.5047 
     32 CA         26.0085   24.9208   -3.5083 C.3       2 UNK         0.0288 
     33 CB         26.2728   25.7785   -4.7568 C.3       2 UNK        -0.2113 
     34 N          27.2873   24.4169   -2.9891 N.am      2 UNK        -0.4145 
     35 C          27.4167   23.5335   -1.9886 C.2       1 UNK         0.5006 
     36 O          26.4740   23.1432   -1.2944 O.2       1 UNK        -0.5103 
     37 C          28.5364   26.1611    5.1599 C.2       5 UNK         0.5055 
     38 O          28.3780   26.2007    6.3817 O.2       5 UNK        -0.5220 
     39 N          28.4368   27.2249    4.3563 N.am      6 UNK        -0.4450 
     40 CA         28.1222   28.5968    4.7369 C.3       6 UNK         0.0367 
     41 CB         26.6344   28.6987    5.1382 C.3       6 UNK        -0.1929 
     42 C          28.4403   29.5219    3.5503 C.2       6 UNK         0.5070 
     43 O          28.8668   29.0487    2.4941 O.2       6 UNK        -0.5237 
     44 N          28.2061   30.8270    3.7439 N.am      7 UNK        -0.4739 
     45 CA         28.2220   31.9273    2.7648 C.3       7 UNK         0.0276 
     46 CB         27.1966   31.6835    1.6393 C.3       7 UNK        -0.1927 
     47 C          29.5950   32.3022    2.1761 C.2       7 UNK         0.5013 
     48 O          29.8583   33.4945    2.0093 O.2       7 UNK        -0.5193 
     49 N          30.4346   31.3107    1.8557 N.am      8 UNK        -0.4253 
     50 CA         31.7850   31.5034    1.3190 C.3       8 UNK         0.0242 
     51 CB         32.3226   30.1610    0.8012 C.3       8 UNK        -0.2000 
     52 C          32.7416   32.0844    2.3728 C.2       8 UNK         0.4948 
     53 O          32.5491   31.8519    3.5680 O.2       8 UNK        -0.5275 
     54 N          33.7897   32.7789    1.9063 N.am      9 UNK        -0.4246 
     55 CA         34.7952   33.4670    2.7297 C.3       9 UNK         0.0261 
     56 CB         35.8160   34.1623    1.8145 C.3       9 UNK        -0.1959 
     57 C          35.5165   32.5737    3.7561 C.2       9 UNK         0.5033 
     58 O          35.8623   33.0567    4.8351 O.2       9 UNK        -0.5390 
     59 N          35.6798   31.2824    3.4333 N.am      10 UNK        -0.4215 
     60 CA         36.2110   30.2488    4.3290 C.3       10 UNK         0.0240 
     61 CB         36.3963   28.9436    3.5368 C.3       10 UNK        -0.1982 
     62 C          35.3508   30.0005    5.5856 C.2       10 UNK         0.4970 
     63 O          35.8849   29.5203    6.5860 O.2       10 UNK        -0.4916 
     64 N          34.0574   30.3388    5.5177 N.am      11 UNK        -0.4279 
     65 CA         33.1010   30.2992    6.6307 C.3       11 UNK         0.1003 
     66 C          32.9192   31.6854    7.3182 C.2       11 UNK         0.5709 
     67 N          33.6657   32.7246    6.9579 N.am      11 UNK        -0.7358 
     68 O          32.0983   31.8195    8.2228 O.2       11 UNK        -0.4999 
     69 C69        31.7476   29.6901    6.1727 C.3       12 UNK        -0.0954 
     70 S70        31.8771   27.9057    5.8261 S.3       12 UNK        -0.2268 
     71 C71        32.1689   27.8801    4.0229 C.3       12 UNK         0.0203 
     72 H72        27.5357   18.8039   -2.5760 H         1 UNK         0.0888 
     73 H73        29.2801   18.6475   -2.8021 H         1 UNK         0.0888 
     74 H74        28.6261   19.0128   -1.2044 H         1 UNK         0.0888 
     75 H75        28.8344   21.1682   -0.6457 H         1 UNK         0.3017 
     76 H76        29.4703   23.2145   -2.5716 H         1 UNK         0.0873 
     77 H77        28.7573   23.6930    0.3684 H         1 UNK         0.0745 
     78 H78        30.2758   22.9963   -0.0955 H         1 UNK         0.0745 
     79 H79        32.3042   24.1884   -0.5672 H         1 UNK         0.0705 
     80 H80        32.4691   25.9214   -0.6182 H         1 UNK         0.0705 
     81 H81        31.9995   27.3134    1.3859 H         1 UNK         0.1334 
     82 H82        32.2398   25.3321    5.1912 H         1 UNK         0.1417 
     83 H83        31.8596   23.0412    1.6049 H         1 UNK         0.1562 
     84 H84        32.3237   22.9302    5.3065 H         1 UNK         0.0748 
     85 H85        32.4250   21.9806    3.8448 H         1 UNK         0.0748 
     86 H86        30.2129   24.1778    6.0321 H         1 UNK         0.0940 
     87 H87        28.6680   23.3807    6.1019 H         1 UNK         0.0940 
     88 H88        29.5745   25.0370    3.7015 H         1 UNK         0.0703 
     89 H89        27.0620   23.6584    4.2274 H         1 UNK         0.3081 
     90 H90        26.1633   23.2981    1.5611 H         1 UNK         0.0719 
     91 H91        24.6346   25.0223    3.5865 H         1 UNK         0.0809 
     92 H92        23.8495   23.8633    2.5168 H         1 UNK         0.0809 
     93 H93        25.0134   23.3109    3.7032 H         1 UNK         0.0809 
     94 H94        25.7655   24.7072   -0.0812 H         1 UNK         0.2990 
     95 H95        24.1577   27.4325   -0.7615 H         1 UNK         0.0690 
     96 H96        26.0366   29.0475   -1.2227 H         1 UNK         0.0788 
     97 H97        26.9884   28.2875    0.0556 H         1 UNK         0.0788 
     98 H98        25.4937   29.1244    0.4441 H         1 UNK         0.0788 
     99 H99        26.8252   26.3885   -1.5704 H         1 UNK         0.2993 
    100 H100       25.4204   24.0520   -3.8123 H         1 UNK         0.0949 
    101 H101       25.3385   26.1482   -5.1822 H         1 UNK         0.0767 
    102 H102       26.8922   26.6465   -4.5269 H         1 UNK         0.0767 
    103 H103       26.7742   25.2032   -5.5355 H         1 UNK         0.0767 
    104 H104       28.1165   24.6989   -3.4925 H         1 UNK         0.3013 
    105 H105       28.5591   27.0923    3.3533 H         1 UNK         0.3121 
    106 H106       28.7573   28.8830    5.5773 H         1 UNK         0.0774 
    107 H107       25.9798   28.4258    4.3086 H         1 UNK         0.0815 
    108 H108       26.3679   29.7098    5.4464 H         1 UNK         0.0815 
    109 H109       26.3973   28.0438    5.9764 H         1 UNK         0.0815 
    110 H110       27.9129   31.1056    4.6703 H         1 UNK         0.2987 
    111 H111       27.8849   32.8053    3.3188 H         1 UNK         0.0949 
    112 H112       27.4705   30.8308    1.0175 H         1 UNK         0.0806 
    113 H113       26.2003   31.4993    2.0412 H         1 UNK         0.0806 
    114 H114       27.1258   32.5515    0.9824 H         1 UNK         0.0806 
    115 H115       30.1152   30.3598    2.0226 H         1 UNK         0.3010 
    116 H116       31.7153   32.2014    0.4819 H         1 UNK         0.0829 
    117 H117       32.5443   29.4817    1.6222 H         1 UNK         0.0813 
    118 H118       31.6111   29.6712    0.1358 H         1 UNK         0.0813 
    119 H119       33.2474   30.3001    0.2401 H         1 UNK         0.0813 
    120 H120       33.8777   32.8984    0.9069 H         1 UNK         0.3038 
    121 H121       34.2675   34.2371    3.2963 H         1 UNK         0.0769 
    122 H122       36.3493   33.4476    1.1865 H         1 UNK         0.0811 
    123 H123       36.5623   34.7012    2.4004 H         1 UNK         0.0811 
    124 H124       35.3344   34.8908    1.1619 H         1 UNK         0.0811 
    125 H125       35.3659   30.9797    2.5230 H         1 UNK         0.3204 
    126 H126       37.1922   30.5830    4.6726 H         1 UNK         0.0748 
    127 H127       36.8003   28.1543    4.1725 H         1 UNK         0.0771 
    128 H128       35.4540   28.5798    3.1261 H         1 UNK         0.0771 
    129 H129       37.0937   29.0774    2.7095 H         1 UNK         0.0771 
    130 H130       33.6993   30.7854    4.6782 H         1 UNK         0.2980 
    131 H131       33.4966   29.6535    7.4165 H         1 UNK         0.0545 
    132 H132       33.5322   33.6060    7.4267 H         1 UNK         0.3459 
    133 H133       34.3675   32.6437    6.2327 H         1 UNK         0.3459 
    134 H134       31.3512   30.2140    5.3016 H         1 UNK         0.0616 
    135 H135       30.9924   29.7939    6.9536 H         1 UNK         0.0616 
    136 H136       33.1351   28.3379    3.8154 H         1 UNK         0.0634 
    137 H137       31.4133   28.5092    3.5512 H         1 UNK         0.0634 
@<TRIPOS>BOND
     1    1    2 1    
     2    1   72 1    
     3    1   73 1    
     4    1   74 1    
     5    2    3 2    
     6    2    4 am   BACKBONE|DICT|INTERRES
     7    4    5 1    
     8    4   75 1    
     9    5    6 1    
    10    5   35 1    
    11    5   76 1    
    12    6    7 1    
    13    6   77 1    
    14    6   78 1    
    15    7    8 1    
    16    8    9 1    
    17    8   79 1    
    18    8   80 1    
    19    9   10 ar   
    20    9   14 ar   
    21   10   11 ar   
    22   10   81 1    
    23   11   12 ar   
    24   11   71 1    
    25   12   13 ar   
    26   12   82 1    
    27   13   14 ar   
    28   13   15 1    
    29   14   83 1    
    30   15   16 1    
    31   15   84 1    
    32   15   85 1    
    33   16   17 1    
    34   17   18 1    
    35   17   86 1    
    36   17   87 1    
    37   18   19 1    
    38   18   37 1    
    39   18   88 1    
    40   19   20 am   BACKBONE|DICT|INTERRES
    41   19   89 1    
    42   20   21 2    
    43   20   22 1    
    44   22   23 1    
    45   22   24 1    
    46   22   90 1    
    47   23   91 1    
    48   23   92 1    
    49   23   93 1    
    50   24   25 am   BACKBONE|DICT|INTERRES
    51   24   94 1    
    52   25   26 2    
    53   25   27 1    
    54   27   28 1    
    55   27   29 1    
    56   27   95 1    
    57   28   96 1    
    58   28   97 1    
    59   28   98 1    
    60   29   30 am   BACKBONE|DICT|INTERRES
    61   29   99 1    
    62   30   31 2    
    63   30   32 1    
    64   32   33 1    
    65   32   34 1    
    66   32  100 1    
    67   33  101 1    
    68   33  102 1    
    69   33  103 1    
    70   34   35 am   BACKBONE|DICT|INTERRES
    71   34  104 1    
    72   35   36 2    
    73   37   38 2    
    74   37   39 am   BACKBONE|DICT|INTERRES
    75   39   40 1    
    76   39  105 1    
    77   40   41 1    
    78   40   42 1    
    79   40  106 1    
    80   41  107 1    
    81   41  108 1    
    82   41  109 1    
    83   42   43 2    
    84   42   44 am   BACKBONE|DICT|INTERRES
    85   44   45 1    
    86   44  110 1    
    87   45   46 1    
    88   45   47 1    
    89   45  111 1    
    90   46  112 1    
    91   46  113 1    
    92   46  114 1    
    93   47   48 2    
    94   47   49 am   BACKBONE|DICT|INTERRES
    95   49   50 1    
    96   49  115 1    
    97   50   51 1    
    98   50   52 1    
    99   50  116 1    
   100   51  117 1    
   101   51  118 1    
   102   51  119 1    
   103   52   53 2    
   104   52   54 am   BACKBONE|DICT|INTERRES
   105   54   55 1    
   106   54  120 1    
   107   55   56 1    
   108   55   57 1    
   109   55  121 1    
   110   56  122 1    
   111   56  123 1    
   112   56  124 1    
   113   57   58 2    
   114   57   59 am   BACKBONE|DICT|INTERRES
   115   59   60 1    
   116   59  125 1    
   117   60   61 1    
   118   60   62 1    
   119   60  126 1    
   120   61  127 1    
   121   61  128 1    
   122   61  129 1    
   123   62   63 2    
   124   62   64 am   BACKBONE|DICT|INTERRES
   125   64   65 1    
   126   64  130 1    
   127   65   66 1    
   128   65   69 1    
   129   65  131 1    
   130   66   67 am   BACKBONE|DICT|INTERRES
   131   66   68 2    
   132   67  132 1    
   133   67  133 1    
   134   69   70 1    
   135   69  134 1    
   136   69  135 1    
   137   70   71 1    
   138   71  136 1    
   139   71  137 1    
@<TRIPOS>SUBSTRUCTURE
     1 UNK         1 GROUP             0       ****    0 ROOT    
