@<TRIPOS>MOLECULE
3R136
137   139    1
SMALL
USER_CHARGES


@<TRIPOS>ATOM
      1 CA         29.4888   20.0244    1.3810 C.3       0 UNK        -0.1979 
      2 C          29.0068   20.4569    0.0034 C.2       0 UNK         0.4864 
      3 O          28.5041   19.6293   -0.7586 O.2       0 UNK        -0.5359 
      4 N          29.1629   21.7456   -0.3219 N.am      1 UNK        -0.4318 
      5 CA         28.6721   22.3723   -1.5519 C.3       1 UNK         0.0824 
      6 C6         29.4271   23.6940   -1.8647 C.3       12 UNK        -0.0944 
      7 S7         29.5032   24.8682   -0.4636 S.3       12 UNK        -0.2672 
      8 C8         31.2372   24.6739    0.0599 C.3       12 UNK         0.0333 
      9 C9         31.4373   25.1643    1.4852 C.ar      12 UNK        -0.0807 
     10 C10        31.8659   26.4720    1.7347 C.ar      12 UNK        -0.0894 
     11 C11        32.0259   26.9266    3.0476 C.ar      12 UNK        -0.0804 
     12 C12        31.7671   26.0587    4.1124 C.ar      12 UNK        -0.0824 
     13 C13        31.3287   24.7530    3.8751 C.ar      12 UNK        -0.0762 
     14 C14        31.1768   24.3078    2.5594 C.ar      12 UNK        -0.0782 
     15 C15        30.9623   23.8426    5.0381 C.3       12 UNK         0.0230 
     16 S16        29.1539   23.7417    5.2628 S.3       12 UNK        -0.2608 
     17 C17        28.7377   25.4539    5.7483 C.3       12 UNK        -0.0989 
     18 CA         28.3217   26.3316    4.5373 C.3       5 UNK         0.0716 
     19 N          27.1613   25.7856    3.8195 N.am      5 UNK        -0.4135 
     20 C          26.8673   26.0177    2.5329 C.2       4 UNK         0.5031 
     21 O          27.4946   26.8210    1.8372 O.2       4 UNK        -0.5229 
     22 CA         25.6951   25.2108    1.9445 C.3       4 UNK         0.0329 
     23 CB         24.3718   25.4656    2.6994 C.3       4 UNK        -0.2001 
     24 N          25.5394   25.4100    0.4973 N.am      4 UNK        -0.4303 
     25 C          25.1227   26.5094   -0.1548 C.2       3 UNK         0.5044 
     26 O          24.7064   27.5271    0.4010 O.2       3 UNK        -0.5152 
     27 CA         25.1680   26.4870   -1.6984 C.3       3 UNK         0.0319 
     28 CB         26.2445   27.4490   -2.2278 C.3       3 UNK        -0.2001 
     29 N          25.4150   25.1617   -2.2686 N.am      3 UNK        -0.4354 
     30 C          24.5272   24.1596   -2.3194 C.2       2 UNK         0.4964 
     31 O          23.3511   24.2677   -1.9715 O.2       2 UNK        -0.5047 
     32 CA         25.0455   22.7972   -2.8204 C.3       2 UNK         0.0288 
     33 CB         24.6665   22.5881   -4.2958 C.3       2 UNK        -0.2113 
     34 N          26.4947   22.6039   -2.6628 N.am      2 UNK        -0.4145 
     35 C          27.1441   22.5806   -1.4888 C.2       1 UNK         0.5006 
     36 O          26.5871   22.7561   -0.4009 O.2       1 UNK        -0.5103 
     37 C          28.1866   27.8309    4.8948 C.2       5 UNK         0.5055 
     38 O          28.4188   28.2253    6.0391 O.2       5 UNK        -0.5220 
     39 N          27.8347   28.6402    3.8935 N.am      6 UNK        -0.4450 
     40 CA         27.7947   30.1011    3.9134 C.3       6 UNK         0.0367 
     41 CB         26.4049   30.5733    4.3801 C.3       6 UNK        -0.1929 
     42 C          28.1735   30.6759    2.5339 C.2       6 UNK         0.5070 
     43 O          27.9232   31.8541    2.2789 O.2       6 UNK        -0.5237 
     44 N          28.7496   29.8405    1.6551 N.am      7 UNK        -0.4739 
     45 CA         29.0660   30.1627    0.2611 C.3       7 UNK         0.0276 
     46 CB         29.3179   28.8461   -0.4912 C.3       7 UNK        -0.1927 
     47 C          30.2644   31.1115    0.0798 C.2       7 UNK         0.5013 
     48 O          30.4194   31.6756   -1.0044 O.2       7 UNK        -0.5193 
     49 N          31.0964   31.2580    1.1157 N.am      8 UNK        -0.4253 
     50 CA         32.3078   32.0695    1.1301 C.3       8 UNK         0.0242 
     51 CB         33.4533   31.3156    0.4257 C.3       8 UNK        -0.2000 
     52 C          32.6674   32.4079    2.5817 C.2       8 UNK         0.4948 
     53 O          32.1097   31.8158    3.5108 O.2       8 UNK        -0.5275 
     54 N          33.5935   33.3598    2.7414 N.am      9 UNK        -0.4246 
     55 CA         34.1554   33.7788    4.0259 C.3       9 UNK         0.0261 
     56 CB         34.8471   35.1394    3.8380 C.3       9 UNK        -0.1959 
     57 C          35.1455   32.7439    4.5892 C.2       9 UNK         0.5033 
     58 O          35.6293   31.8808    3.8533 O.2       9 UNK        -0.5390 
     59 N          35.4427   32.8717    5.8895 N.am      10 UNK        -0.4215 
     60 CA         36.3645   32.0678    6.7073 C.3       10 UNK         0.0240 
     61 CB         37.7999   32.0721    6.1431 C.3       10 UNK        -0.1982 
     62 C          35.8769   30.6372    6.9949 C.2       10 UNK         0.4970 
     63 O          35.9311   30.2175    8.1517 O.2       10 UNK        -0.4916 
     64 N          35.3954   29.9229    5.9701 N.am      11 UNK        -0.4279 
     65 CA         34.7687   28.5976    6.1044 C.3       11 UNK         0.1003 
     66 C          33.3561   28.6071    6.7583 C.2       11 UNK         0.5709 
     67 N          32.6666   29.7396    6.8403 N.am      11 UNK        -0.7358 
     68 O          32.8859   27.5678    7.2135 O.2       11 UNK        -0.4999 
     69 C69        34.8068   27.7782    4.7842 C.3       12 UNK        -0.0954 
     70 S70        34.2096   28.6549    3.2959 S.3       12 UNK        -0.2268 
     71 C71        32.4106   28.3733    3.3169 C.3       12 UNK         0.0203 
     72 H72        29.9247   20.8521    1.9393 H         1 UNK         0.0888 
     73 H73        28.6569   19.6263    1.9615 H         1 UNK         0.0888 
     74 H74        30.2433   19.2439    1.2870 H         1 UNK         0.0888 
     75 H75        29.5259   22.3940    0.3607 H         1 UNK         0.3017 
     76 H76        28.8679   21.6803   -2.3746 H         1 UNK         0.0873 
     77 H77        30.4437   23.4582   -2.1832 H         1 UNK         0.0745 
     78 H78        28.9781   24.2068   -2.7175 H         1 UNK         0.0745 
     79 H79        31.8841   25.2200   -0.6285 H         1 UNK         0.0705 
     80 H80        31.5320   23.6256   -0.0070 H         1 UNK         0.0705 
     81 H81        32.0590   27.1417    0.9081 H         1 UNK         0.1334 
     82 H82        31.8644   26.4125    5.1288 H         1 UNK         0.1417 
     83 H83        30.8261   23.3021    2.3753 H         1 UNK         0.1562 
     84 H84        31.4276   24.1861    5.9636 H         1 UNK         0.0748 
     85 H85        31.3531   22.8408    4.8535 H         1 UNK         0.0748 
     86 H86        29.5970   25.8847    6.2663 H         1 UNK         0.0940 
     87 H87        27.9329   25.4194    6.4848 H         1 UNK         0.0940 
     88 H88        29.1444   26.3045    3.8248 H         1 UNK         0.0703 
     89 H89        26.6005   25.1238    4.3352 H         1 UNK         0.3081 
     90 H90        25.9530   24.1573    2.0639 H         1 UNK         0.0719 
     91 H91        24.4241   25.1014    3.7257 H         1 UNK         0.0809 
     92 H92        23.5381   24.9514    2.2211 H         1 UNK         0.0809 
     93 H93        24.1266   26.5270    2.7476 H         1 UNK         0.0809 
     94 H94        25.8804   24.6341   -0.0602 H         1 UNK         0.2990 
     95 H95        24.1955   26.8379   -2.0504 H         1 UNK         0.0690 
     96 H96        26.1703   27.5683   -3.3088 H         1 UNK         0.0788 
     97 H97        27.2479   27.0887   -2.0002 H         1 UNK         0.0788 
     98 H98        26.1428   28.4414   -1.7860 H         1 UNK         0.0788 
     99 H99        26.3548   24.9787   -2.5875 H         1 UNK         0.2993 
    100 H100       24.5458   22.0293   -2.2258 H         1 UNK         0.0949 
    101 H101       23.5905   22.6960   -4.4420 H         1 UNK         0.0767 
    102 H102       25.1577   23.3134   -4.9458 H         1 UNK         0.0767 
    103 H103       24.9385   21.5895   -4.6385 H         1 UNK         0.0767 
    104 H104       27.0207   22.4578   -3.5131 H         1 UNK         0.3013 
    105 H105       27.6226   28.1933    3.0011 H         1 UNK         0.3121 
    106 H106       28.5450   30.4683    4.6169 H         1 UNK         0.0774 
    107 H107       26.3593   31.6612    4.4445 H         1 UNK         0.0815 
    108 H108       25.6221   30.2516    3.6922 H         1 UNK         0.0815 
    109 H109       26.1644   30.1827    5.3689 H         1 UNK         0.0815 
    110 H110       28.9304   28.8869    1.9349 H         1 UNK         0.2987 
    111 H111       28.1935   30.6502   -0.1794 H         1 UNK         0.0949 
    112 H112       28.4877   28.1527   -0.3628 H         1 UNK         0.0806 
    113 H113       29.4363   29.0207   -1.5612 H         1 UNK         0.0806 
    114 H114       30.2201   28.3454   -0.1396 H         1 UNK         0.0806 
    115 H115       30.8672   30.8334    2.0052 H         1 UNK         0.3010 
    116 H116       32.1110   33.0077    0.6067 H         1 UNK         0.0829 
    117 H117       33.2204   31.1267   -0.6222 H         1 UNK         0.0813 
    118 H118       34.3817   31.8870    0.4494 H         1 UNK         0.0813 
    119 H119       33.6519   30.3548    0.9001 H         1 UNK         0.0813 
    120 H120       34.0215   33.7578    1.9185 H         1 UNK         0.3038 
    121 H121       33.3357   33.8948    4.7376 H         1 UNK         0.0769 
    122 H122       35.6840   35.0735    3.1421 H         1 UNK         0.0811 
    123 H123       35.2404   35.5190    4.7819 H         1 UNK         0.0811 
    124 H124       34.1524   35.8881    3.4570 H         1 UNK         0.0811 
    125 H125       34.9704   33.6070    6.3982 H         1 UNK         0.3204 
    126 H126       36.4034   32.5762    7.6724 H         1 UNK         0.0748 
    127 H127       38.4874   31.5782    6.8309 H         1 UNK         0.0771 
    128 H128       37.8695   31.5488    5.1889 H         1 UNK         0.0771 
    129 H129       38.1649   33.0884    5.9955 H         1 UNK         0.0771 
    130 H130       35.3855   30.3453    5.0456 H         1 UNK         0.2980 
    131 H131       35.3867   28.0396    6.8108 H         1 UNK         0.0545 
    132 H132       31.7567   29.7318    7.2731 H         1 UNK         0.3459 
    133 H133       33.0320   30.5912    6.4470 H         1 UNK         0.3459 
    134 H134       34.2881   26.8257    4.8918 H         1 UNK         0.0616 
    135 H135       35.8438   27.5073    4.5797 H         1 UNK         0.0616 
    136 H136       31.9628   29.0070    2.5515 H         1 UNK         0.0634 
    137 H137       31.9874   28.7151    4.2612 H         1 UNK         0.0634 
@<TRIPOS>BOND
     1    1    2 1    
     2    1   72 1    
     3    1   73 1    
     4    1   74 1    
     5    2    3 2    
     6    2    4 am   BACKBONE|DICT|INTERRES
     7    4    5 1    
     8    4   75 1    
     9    5    6 1    
    10    5   35 1    
    11    5   76 1    
    12    6    7 1    
    13    6   77 1    
    14    6   78 1    
    15    7    8 1    
    16    8    9 1    
    17    8   79 1    
    18    8   80 1    
    19    9   10 ar   
    20    9   14 ar   
    21   10   11 ar   
    22   10   81 1    
    23   11   12 ar   
    24   11   71 1    
    25   12   13 ar   
    26   12   82 1    
    27   13   14 ar   
    28   13   15 1    
    29   14   83 1    
    30   15   16 1    
    31   15   84 1    
    32   15   85 1    
    33   16   17 1    
    34   17   18 1    
    35   17   86 1    
    36   17   87 1    
    37   18   19 1    
    38   18   37 1    
    39   18   88 1    
    40   19   20 am   BACKBONE|DICT|INTERRES
    41   19   89 1    
    42   20   21 2    
    43   20   22 1    
    44   22   23 1    
    45   22   24 1    
    46   22   90 1    
    47   23   91 1    
    48   23   92 1    
    49   23   93 1    
    50   24   25 am   BACKBONE|DICT|INTERRES
    51   24   94 1    
    52   25   26 2    
    53   25   27 1    
    54   27   28 1    
    55   27   29 1    
    56   27   95 1    
    57   28   96 1    
    58   28   97 1    
    59   28   98 1    
    60   29   30 am   BACKBONE|DICT|INTERRES
    61   29   99 1    
    62   30   31 2    
    63   30   32 1    
    64   32   33 1    
    65   32   34 1    
    66   32  100 1    
    67   33  101 1    
    68   33  102 1    
    69   33  103 1    
    70   34   35 am   BACKBONE|DICT|INTERRES
    71   34  104 1    
    72   35   36 2    
    73   37   38 2    
    74   37   39 am   BACKBONE|DICT|INTERRES
    75   39   40 1    
    76   39  105 1    
    77   40   41 1    
    78   40   42 1    
    79   40  106 1    
    80   41  107 1    
    81   41  108 1    
    82   41  109 1    
    83   42   43 2    
    84   42   44 am   BACKBONE|DICT|INTERRES
    85   44   45 1    
    86   44  110 1    
    87   45   46 1    
    88   45   47 1    
    89   45  111 1    
    90   46  112 1    
    91   46  113 1    
    92   46  114 1    
    93   47   48 2    
    94   47   49 am   BACKBONE|DICT|INTERRES
    95   49   50 1    
    96   49  115 1    
    97   50   51 1    
    98   50   52 1    
    99   50  116 1    
   100   51  117 1    
   101   51  118 1    
   102   51  119 1    
   103   52   53 2    
   104   52   54 am   BACKBONE|DICT|INTERRES
   105   54   55 1    
   106   54  120 1    
   107   55   56 1    
   108   55   57 1    
   109   55  121 1    
   110   56  122 1    
   111   56  123 1    
   112   56  124 1    
   113   57   58 2    
   114   57   59 am   BACKBONE|DICT|INTERRES
   115   59   60 1    
   116   59  125 1    
   117   60   61 1    
   118   60   62 1    
   119   60  126 1    
   120   61  127 1    
   121   61  128 1    
   122   61  129 1    
   123   62   63 2    
   124   62   64 am   BACKBONE|DICT|INTERRES
   125   64   65 1    
   126   64  130 1    
   127   65   66 1    
   128   65   69 1    
   129   65  131 1    
   130   66   67 am   BACKBONE|DICT|INTERRES
   131   66   68 2    
   132   67  132 1    
   133   67  133 1    
   134   69   70 1    
   135   69  134 1    
   136   69  135 1    
   137   70   71 1    
   138   71  136 1    
   139   71  137 1    
@<TRIPOS>SUBSTRUCTURE
     1 UNK         1 GROUP             0       ****    0 ROOT    
