@<TRIPOS>MOLECULE
3R136
137   139    1
SMALL
USER_CHARGES


@<TRIPOS>ATOM
      1 CA         34.2832   20.0128   -0.9434 C.3       0 UNK        -0.1979 
      2 C          33.4364   21.0194   -0.1782 C.2       0 UNK         0.4864 
      3 O          33.9850   21.8966    0.4907 O.2       0 UNK        -0.5359 
      4 N          32.1054   20.8951   -0.2643 N.am      1 UNK        -0.4318 
      5 CA         31.1392   21.8118    0.3459 C.3       1 UNK         0.0824 
      6 C6         29.7381   21.1490    0.4313 C.3       12 UNK        -0.0944 
      7 S7         28.4417   22.2001    1.1686 S.3       12 UNK        -0.2672 
      8 C8         28.7876   22.0369    2.9454 C.3       12 UNK         0.0333 
      9 C9         28.3715   23.3059    3.6703 C.ar      12 UNK        -0.0807 
     10 C10        29.3042   24.3191    3.9102 C.ar      12 UNK        -0.0894 
     11 C11        28.9228   25.5096    4.5443 C.ar      12 UNK        -0.0804 
     12 C12        27.5901   25.6706    4.9371 C.ar      12 UNK        -0.0824 
     13 C13        26.6430   24.6754    4.6753 C.ar      12 UNK        -0.0762 
     14 C14        27.0427   23.4878    4.0583 C.ar      12 UNK        -0.0782 
     15 C15        25.1754   24.8986    5.0032 C.3       12 UNK         0.0230 
     16 S16        24.2452   25.4018    3.5176 S.3       12 UNK        -0.2608 
     17 C17        24.8536   27.1033    3.2560 C.3       12 UNK        -0.0989 
     18 CA         25.9858   27.2041    2.1921 C.3       5 UNK         0.0716 
     19 N          25.5983   26.7013    0.8693 N.am      5 UNK        -0.4135 
     20 C          24.6888   27.2249    0.0372 C.2       4 UNK         0.5031 
     21 O          24.0416   28.2459    0.2777 O.2       4 UNK        -0.5229 
     22 CA         24.4821   26.4814   -1.2988 C.3       4 UNK         0.0329 
     23 CB         23.4386   27.1627   -2.2047 C.3       4 UNK        -0.2001 
     24 N          25.7387   26.3533   -2.0406 N.am      4 UNK        -0.4303 
     25 C          26.6725   25.4162   -1.8316 C.2       3 UNK         0.5044 
     26 O          26.5405   24.5092   -1.0081 O.2       3 UNK        -0.5152 
     27 CA         27.9756   25.5123   -2.6567 C.3       3 UNK         0.0319 
     28 CB         28.1119   26.8267   -3.4603 C.3       3 UNK        -0.2001 
     29 N          29.1845   25.3070   -1.8477 N.am      3 UNK        -0.4354 
     30 C          29.5268   25.9520   -0.7233 C.2       2 UNK         0.4964 
     31 O          28.8007   26.7662   -0.1518 O.2       2 UNK        -0.5047 
     32 CA         30.9194   25.6332   -0.1464 C.3       2 UNK         0.0288 
     33 CB         31.3141   26.5917    0.9944 C.3       2 UNK        -0.2113 
     34 N          30.9980   24.2597    0.3484 N.am      2 UNK        -0.4145 
     35 C          31.1276   23.1612   -0.4074 C.2       1 UNK         0.5006 
     36 O          31.2101   23.1828   -1.6397 O.2       1 UNK        -0.5103 
     37 C          26.5948   28.6228    2.1213 C.2       5 UNK         0.5055 
     38 O          26.1612   29.5222    2.8468 O.2       5 UNK        -0.5220 
     39 N          27.5987   28.8092    1.2539 N.am      6 UNK        -0.4450 
     40 CA         28.3426   30.0579    1.0826 C.3       6 UNK         0.0367 
     41 CB         29.0145   30.0653   -0.3032 C.3       6 UNK        -0.1929 
     42 C          29.3537   30.2576    2.2259 C.2       6 UNK         0.5070 
     43 O          30.5621   30.1509    2.0142 O.2       6 UNK        -0.5237 
     44 N          28.8346   30.5528    3.4261 N.am      7 UNK        -0.4739 
     45 CA         29.5830   30.7694    4.6719 C.3       7 UNK         0.0276 
     46 CB         28.5995   31.1303    5.7951 C.3       7 UNK        -0.1927 
     47 C          30.6998   31.8257    4.5740 C.2       7 UNK         0.5013 
     48 O          31.7282   31.6863    5.2406 O.2       7 UNK        -0.5193 
     49 N          30.4929   32.8303    3.7112 N.am      8 UNK        -0.4253 
     50 CA         31.4481   33.8890    3.3812 C.3       8 UNK         0.0242 
     51 CB         30.7753   34.8964    2.4351 C.3       8 UNK        -0.2000 
     52 C          32.7707   33.3860    2.7734 C.2       8 UNK         0.4948 
     53 O          33.7841   34.0705    2.9176 O.2       8 UNK        -0.5275 
     54 N          32.7768   32.1957    2.1528 N.am      9 UNK        -0.4246 
     55 CA         33.9666   31.5458    1.5892 C.3       9 UNK         0.0261 
     56 CB         33.5245   30.5737    0.4784 C.3       9 UNK        -0.1959 
     57 C          34.8305   30.8545    2.6681 C.2       9 UNK         0.5033 
     58 O          35.2897   29.7310    2.4542 O.2       9 UNK        -0.5390 
     59 N          35.0225   31.5328    3.8111 N.am      10 UNK        -0.4215 
     60 CA         35.7299   31.0907    5.0213 C.3       10 UNK         0.0240 
     61 CB         37.2516   31.0436    4.7662 C.3       10 UNK        -0.1982 
     62 C          35.1753   29.7703    5.5971 C.2       10 UNK         0.4970 
     63 O          35.9507   28.9102    6.0201 O.2       10 UNK        -0.4916 
     64 N          33.8449   29.6323    5.5786 N.am      11 UNK        -0.4279 
     65 CA         33.1129   28.4089    5.9323 C.3       11 UNK         0.1003 
     66 C          32.1335   28.6170    7.1242 C.2       11 UNK         0.5709 
     67 N          31.6883   29.8325    7.4187 N.am      11 UNK        -0.7358 
     68 O          31.8059   27.6665    7.8295 O.2       11 UNK        -0.4999 
     69 C69        32.4416   27.8372    4.6544 C.3       12 UNK        -0.0954 
     70 S70        31.6540   26.2042    4.8424 S.3       12 UNK        -0.2268 
     71 C71        29.8919   26.6740    4.7464 C.3       12 UNK         0.0203 
     72 H72        33.6706   19.2877   -1.4789 H         1 UNK         0.0888 
     73 H73        34.9119   20.5273   -1.6697 H         1 UNK         0.0888 
     74 H74        34.9306   19.4680   -0.2568 H         1 UNK         0.0888 
     75 H75        31.7143   20.1749   -0.8545 H         1 UNK         0.3017 
     76 H76        31.4808   22.0030    1.3655 H         1 UNK         0.0873 
     77 H77        29.7966   20.2216    1.0039 H         1 UNK         0.0745 
     78 H78        29.3985   20.8638   -0.5662 H         1 UNK         0.0745 
     79 H79        28.2496   21.1749    3.3426 H         1 UNK         0.0705 
     80 H80        29.8476   21.8427    3.1129 H         1 UNK         0.0705 
     81 H81        30.3231   24.1813    3.5798 H         1 UNK         0.1334 
     82 H82        27.2781   26.5947    5.4046 H         1 UNK         0.1417 
     83 H83        26.3105   22.7213    3.8423 H         1 UNK         0.1562 
     84 H84        25.0578   25.6466    5.7890 H         1 UNK         0.0748 
     85 H85        24.7442   23.9760    5.3947 H         1 UNK         0.0748 
     86 H86        25.1899   27.5011    4.2150 H         1 UNK         0.0940 
     87 H87        24.0047   27.7243    2.9647 H         1 UNK         0.0940 
     88 H88        26.8035   26.5572    2.5072 H         1 UNK         0.0703 
     89 H89        26.0911   25.8734    0.5517 H         1 UNK         0.3081 
     90 H90        24.1066   25.4848   -1.0561 H         1 UNK         0.0719 
     91 H91        22.4740   27.2387   -1.7008 H         1 UNK         0.0809 
     92 H92        23.7419   28.1727   -2.4833 H         1 UNK         0.0809 
     93 H93        23.2781   26.5951   -3.1215 H         1 UNK         0.0809 
     94 H94        25.9416   27.0842   -2.7071 H         1 UNK         0.2990 
     95 H95        27.9415   24.6874   -3.3696 H         1 UNK         0.0690 
     96 H96        29.0421   26.8410   -4.0286 H         1 UNK         0.0788 
     97 H97        28.1131   27.7036   -2.8109 H         1 UNK         0.0788 
     98 H98        27.3035   26.9416   -4.1835 H         1 UNK         0.0788 
     99 H99        29.8213   24.5868   -2.1734 H         1 UNK         0.2993 
    100 H100       31.6446   25.7592   -0.9533 H         1 UNK         0.0949 
    101 H101       32.3173   26.3818    1.3658 H         1 UNK         0.0767 
    102 H102       31.3063   27.6291    0.6575 H         1 UNK         0.0767 
    103 H103       30.6243   26.5207    1.8352 H         1 UNK         0.0767 
    104 H104       30.8815   24.1454    1.3435 H         1 UNK         0.3013 
    105 H105       27.9481   28.0099    0.7214 H         1 UNK         0.3121 
    106 H106       27.6395   30.8931    1.1108 H         1 UNK         0.0774 
    107 H107       29.7489   29.2659   -0.4035 H         1 UNK         0.0815 
    108 H108       28.2811   29.9469   -1.1007 H         1 UNK         0.0815 
    109 H109       29.5366   31.0070   -0.4771 H         1 UNK         0.0815 
    110 H110       27.8216   30.5526    3.4960 H         1 UNK         0.2987 
    111 H111       30.0522   29.8228    4.9354 H         1 UNK         0.0949 
    112 H112       27.8698   30.3359    5.9534 H         1 UNK         0.0806 
    113 H113       29.1219   31.2800    6.7410 H         1 UNK         0.0806 
    114 H114       28.0540   32.0488    5.5750 H         1 UNK         0.0806 
    115 H115       29.6158   32.8401    3.2117 H         1 UNK         0.3010 
    116 H116       31.6972   34.4037    4.3116 H         1 UNK         0.0829 
    117 H117       30.4773   34.4306    1.4948 H         1 UNK         0.0813 
    118 H118       31.4529   35.7163    2.1919 H         1 UNK         0.0813 
    119 H119       29.8878   35.3378    2.8892 H         1 UNK         0.0813 
    120 H120       31.9209   31.6480    2.1265 H         1 UNK         0.3038 
    121 H121       34.5932   32.3104    1.1253 H         1 UNK         0.0769 
    122 H122       32.9067   31.0738   -0.2675 H         1 UNK         0.0811 
    123 H123       32.9519   29.7373    0.8813 H         1 UNK         0.0811 
    124 H124       34.3866   30.1560   -0.0430 H         1 UNK         0.0811 
    125 H125       34.6179   32.4633    3.8496 H         1 UNK         0.3204 
    126 H126       35.5450   31.8522    5.7804 H         1 UNK         0.0748 
    127 H127       37.5155   30.2715    4.0425 H         1 UNK         0.0771 
    128 H128       37.6198   31.9972    4.3878 H         1 UNK         0.0771 
    129 H129       37.7978   30.8292    5.6857 H         1 UNK         0.0771 
    130 H130       33.2733   30.4101    5.2661 H         1 UNK         0.2980 
    131 H131       33.8222   27.6554    6.2792 H         1 UNK         0.0545 
    132 H132       31.9014   30.6245    6.8231 H         1 UNK         0.3459 
    133 H133       31.0843   29.9502    8.2159 H         1 UNK         0.3459 
    134 H134       33.2023   27.7175    3.8809 H         1 UNK         0.0616 
    135 H135       31.7335   28.5513    4.2364 H         1 UNK         0.0616 
    136 H136       29.7489   27.3700    3.9188 H         1 UNK         0.0634 
    137 H137       29.6367   27.2166    5.6581 H         1 UNK         0.0634 
@<TRIPOS>BOND
     1    1    2 1    
     2    1   72 1    
     3    1   73 1    
     4    1   74 1    
     5    2    3 2    
     6    2    4 am   BACKBONE|DICT|INTERRES
     7    4    5 1    
     8    4   75 1    
     9    5    6 1    
    10    5   35 1    
    11    5   76 1    
    12    6    7 1    
    13    6   77 1    
    14    6   78 1    
    15    7    8 1    
    16    8    9 1    
    17    8   79 1    
    18    8   80 1    
    19    9   10 ar   
    20    9   14 ar   
    21   10   11 ar   
    22   10   81 1    
    23   11   12 ar   
    24   11   71 1    
    25   12   13 ar   
    26   12   82 1    
    27   13   14 ar   
    28   13   15 1    
    29   14   83 1    
    30   15   16 1    
    31   15   84 1    
    32   15   85 1    
    33   16   17 1    
    34   17   18 1    
    35   17   86 1    
    36   17   87 1    
    37   18   19 1    
    38   18   37 1    
    39   18   88 1    
    40   19   20 am   BACKBONE|DICT|INTERRES
    41   19   89 1    
    42   20   21 2    
    43   20   22 1    
    44   22   23 1    
    45   22   24 1    
    46   22   90 1    
    47   23   91 1    
    48   23   92 1    
    49   23   93 1    
    50   24   25 am   BACKBONE|DICT|INTERRES
    51   24   94 1    
    52   25   26 2    
    53   25   27 1    
    54   27   28 1    
    55   27   29 1    
    56   27   95 1    
    57   28   96 1    
    58   28   97 1    
    59   28   98 1    
    60   29   30 am   BACKBONE|DICT|INTERRES
    61   29   99 1    
    62   30   31 2    
    63   30   32 1    
    64   32   33 1    
    65   32   34 1    
    66   32  100 1    
    67   33  101 1    
    68   33  102 1    
    69   33  103 1    
    70   34   35 am   BACKBONE|DICT|INTERRES
    71   34  104 1    
    72   35   36 2    
    73   37   38 2    
    74   37   39 am   BACKBONE|DICT|INTERRES
    75   39   40 1    
    76   39  105 1    
    77   40   41 1    
    78   40   42 1    
    79   40  106 1    
    80   41  107 1    
    81   41  108 1    
    82   41  109 1    
    83   42   43 2    
    84   42   44 am   BACKBONE|DICT|INTERRES
    85   44   45 1    
    86   44  110 1    
    87   45   46 1    
    88   45   47 1    
    89   45  111 1    
    90   46  112 1    
    91   46  113 1    
    92   46  114 1    
    93   47   48 2    
    94   47   49 am   BACKBONE|DICT|INTERRES
    95   49   50 1    
    96   49  115 1    
    97   50   51 1    
    98   50   52 1    
    99   50  116 1    
   100   51  117 1    
   101   51  118 1    
   102   51  119 1    
   103   52   53 2    
   104   52   54 am   BACKBONE|DICT|INTERRES
   105   54   55 1    
   106   54  120 1    
   107   55   56 1    
   108   55   57 1    
   109   55  121 1    
   110   56  122 1    
   111   56  123 1    
   112   56  124 1    
   113   57   58 2    
   114   57   59 am   BACKBONE|DICT|INTERRES
   115   59   60 1    
   116   59  125 1    
   117   60   61 1    
   118   60   62 1    
   119   60  126 1    
   120   61  127 1    
   121   61  128 1    
   122   61  129 1    
   123   62   63 2    
   124   62   64 am   BACKBONE|DICT|INTERRES
   125   64   65 1    
   126   64  130 1    
   127   65   66 1    
   128   65   69 1    
   129   65  131 1    
   130   66   67 am   BACKBONE|DICT|INTERRES
   131   66   68 2    
   132   67  132 1    
   133   67  133 1    
   134   69   70 1    
   135   69  134 1    
   136   69  135 1    
   137   70   71 1    
   138   71  136 1    
   139   71  137 1    
@<TRIPOS>SUBSTRUCTURE
     1 UNK         1 GROUP             0       ****    0 ROOT    
