@<TRIPOS>MOLECULE
3R136
137   139    1
SMALL
USER_CHARGES


@<TRIPOS>ATOM
      1 CA         30.9452   28.9531   -0.7310 C.3       0 UNK        -0.1979 
      2 C          30.4415   27.5749   -0.3253 C.2       0 UNK         0.4864 
      3 O          29.2442   27.4033   -0.0782 O.2       0 UNK        -0.5359 
      4 N          31.3511   26.5899   -0.2772 N.am      1 UNK        -0.4318 
      5 CA         31.0394   25.1798   -0.0450 C.3       1 UNK         0.0824 
      6 C6         32.2993   24.3636    0.3331 C.3       12 UNK        -0.0944 
      7 S7         31.8854   22.6983    0.9571 S.3       12 UNK        -0.2672 
      8 C8         32.1412   22.8829    2.7495 C.3       12 UNK         0.0333 
      9 C9         31.0648   23.7385    3.4029 C.ar      12 UNK        -0.0807 
     10 C10        31.3462   25.0536    3.7868 C.ar      12 UNK        -0.0894 
     11 C11        30.3752   25.8226    4.4333 C.ar      12 UNK        -0.0804 
     12 C12        29.1216   25.2691    4.6999 C.ar      12 UNK        -0.0824 
     13 C13        28.8169   23.9648    4.3011 C.ar      12 UNK        -0.0762 
     14 C14        29.7952   23.2034    3.6522 C.ar      12 UNK        -0.0782 
     15 C15        27.4465   23.3697    4.6046 C.3       12 UNK         0.0230 
     16 S16        26.2171   23.7272    3.3042 S.3       12 UNK        -0.2608 
     17 C17        25.8979   25.5069    3.5534 C.3       12 UNK        -0.0989 
     18 CA         26.5103   26.3650    2.4089 C.3       5 UNK         0.0716 
     19 N          25.7107   26.2904    1.1750 N.am      5 UNK        -0.4135 
     20 C          24.5326   26.8947    0.9364 C.2       4 UNK         0.5031 
     21 O          23.9340   27.5918    1.7566 O.2       4 UNK        -0.5229 
     22 CA         23.9046   26.7153   -0.4596 C.3       4 UNK         0.0329 
     23 CB         24.3427   27.8614   -1.3866 C.3       4 UNK        -0.2001 
     24 N          24.2299   25.4379   -1.0931 N.am      4 UNK        -0.4303 
     25 C          23.7633   24.2420   -0.7050 C.2       3 UNK         0.5044 
     26 O          22.9148   24.0908    0.1745 O.2       3 UNK        -0.5152 
     27 CA         24.3558   22.9992   -1.4055 C.3       3 UNK         0.0319 
     28 CB         23.3995   22.4913   -2.4968 C.3       3 UNK        -0.2001 
     29 N          25.6905   23.2038   -1.9902 N.am      3 UNK        -0.4354 
     30 C          26.7696   23.6004   -1.3017 C.2       2 UNK         0.4964 
     31 O          26.7527   23.8254   -0.0882 O.2       2 UNK        -0.5047 
     32 CA         28.0576   23.8619   -2.0942 C.3       2 UNK         0.0288 
     33 CB         27.8327   24.9510   -3.1677 C.3       2 UNK        -0.2113 
     34 N          29.0403   24.3020   -1.1118 N.am      2 UNK        -0.4145 
     35 C          30.3226   24.6168   -1.2884 C.2       1 UNK         0.5006 
     36 O          30.9282   24.5147   -2.3585 O.2       1 UNK        -0.5103 
     37 C          26.7963   27.8278    2.8278 C.2       5 UNK         0.5055 
     38 O          26.4682   28.2286    3.9475 O.2       5 UNK        -0.5220 
     39 N          27.3743   28.6144    1.9090 N.am      6 UNK        -0.4450 
     40 CA         27.7243   30.0161    2.1448 C.3       6 UNK         0.0367 
     41 CB         27.8051   30.7562    0.8006 C.3       6 UNK        -0.1929 
     42 C          29.0576   30.0991    2.8993 C.2       6 UNK         0.5070 
     43 O          29.9982   29.3985    2.5272 O.2       6 UNK        -0.5237 
     44 N          29.1199   30.9440    3.9389 N.am      7 UNK        -0.4739 
     45 CA         30.2868   31.0939    4.8176 C.3       7 UNK         0.0276 
     46 CB         29.9596   32.0517    5.9743 C.3       7 UNK        -0.1927 
     47 C          31.5543   31.5337    4.0706 C.2       7 UNK         0.5013 
     48 O          32.5797   30.8547    4.1825 O.2       7 UNK        -0.5193 
     49 N          31.4297   32.6315    3.3047 N.am      8 UNK        -0.4253 
     50 CA         32.4176   33.2138    2.3850 C.3       8 UNK         0.0242 
     51 CB         32.3337   32.4682    1.0316 C.3       8 UNK        -0.2000 
     52 C          33.8355   33.2645    2.9943 C.2       8 UNK         0.4948 
     53 O          34.0168   33.8642    4.0554 O.2       8 UNK        -0.5275 
     54 N          34.7828   32.5767    2.3489 N.am      9 UNK        -0.4246 
     55 CA         36.0522   32.1313    2.9251 C.3       9 UNK         0.0261 
     56 CB         37.2149   32.7736    2.1457 C.3       9 UNK        -0.1959 
     57 C          36.1180   30.5888    2.9064 C.2       9 UNK         0.5033 
     58 O          37.2141   30.0261    2.9075 O.2       9 UNK        -0.5390 
     59 N          34.9493   29.9316    2.8553 N.am      10 UNK        -0.4215 
     60 CA         34.7931   28.4804    2.7708 C.3       10 UNK         0.0240 
     61 CB         33.5527   28.1563    1.9229 C.3       10 UNK        -0.1982 
     62 C          34.6823   27.8427    4.1616 C.2       10 UNK         0.4970 
     63 O          35.2665   26.7813    4.3816 O.2       10 UNK        -0.4916 
     64 N          33.9562   28.5019    5.0718 N.am      11 UNK        -0.4279 
     65 CA         33.8151   28.1010    6.4781 C.3       11 UNK         0.1003 
     66 C          33.6439   29.2939    7.4622 C.2       11 UNK         0.5709 
     67 N          33.4941   30.5321    7.0024 N.am      11 UNK        -0.7358 
     68 O          33.6814   29.0959    8.6743 O.2       11 UNK        -0.4999 
     69 C69        32.7782   26.9563    6.6769 C.3       12 UNK        -0.0954 
     70 S70        31.0303   27.4747    6.5800 S.3       12 UNK        -0.2268 
     71 C71        30.6519   27.2660    4.8153 C.3       12 UNK         0.0203 
     72 H72        30.9619   29.6192    0.1298 H         1 UNK         0.0888 
     73 H73        30.2893   29.3853   -1.4860 H         1 UNK         0.0888 
     74 H74        31.9520   28.9118   -1.1458 H         1 UNK         0.0888 
     75 H75        32.3070   26.7882   -0.5325 H         1 UNK         0.3017 
     76 H76        30.3559   25.1415    0.8072 H         1 UNK         0.0873 
     77 H77        32.8716   24.8892    1.0977 H         1 UNK         0.0745 
     78 H78        32.9715   24.2609   -0.5210 H         1 UNK         0.0745 
     79 H79        32.1355   21.8919    3.2057 H         1 UNK         0.0705 
     80 H80        33.1345   23.2941    2.9371 H         1 UNK         0.0705 
     81 H81        32.3211   25.4776    3.5890 H         1 UNK         0.1334 
     82 H82        28.3848   25.8653    5.2185 H         1 UNK         0.1417 
     83 H83        29.5739   22.1885    3.3503 H         1 UNK         0.1562 
     84 H84        27.0804   23.7332    5.5661 H         1 UNK         0.0748 
     85 H85        27.5319   22.2871    4.7095 H         1 UNK         0.0748 
     86 H86        26.2810   25.7900    4.5330 H         1 UNK         0.0940 
     87 H87        24.8203   25.6649    3.6179 H         1 UNK         0.0940 
     88 H88        27.4891   25.9487    2.1624 H         1 UNK         0.0703 
     89 H89        26.0795   25.6612    0.4713 H         1 UNK         0.3081 
     90 H90        22.8199   26.7670   -0.3422 H         1 UNK         0.0719 
     91 H91        24.0881   28.8306   -0.9547 H         1 UNK         0.0809 
     92 H92        25.4202   27.8554   -1.5575 H         1 UNK         0.0809 
     93 H93        23.8471   27.8010   -2.3557 H         1 UNK         0.0809 
     94 H94        24.9045   25.4601   -1.8431 H         1 UNK         0.2990 
     95 H95        24.4507   22.2211   -0.6451 H         1 UNK         0.0690 
     96 H96        23.7516   21.5551   -2.9304 H         1 UNK         0.0788 
     97 H97        23.2870   23.2161   -3.3042 H         1 UNK         0.0788 
     98 H98        22.4056   22.3021   -2.0882 H         1 UNK         0.0788 
     99 H99        25.7771   23.0450   -2.9842 H         1 UNK         0.2993 
    100 H100       28.3941   22.9298   -2.5519 H         1 UNK         0.0949 
    101 H101       27.5084   25.8926   -2.7219 H         1 UNK         0.0767 
    102 H102       28.7416   25.1510   -3.7346 H         1 UNK         0.0767 
    103 H103       27.0756   24.6511   -3.8928 H         1 UNK         0.0767 
    104 H104       28.6302   24.3929   -0.1881 H         1 UNK         0.3013 
    105 H105       27.7576   28.1897    1.0687 H         1 UNK         0.3121 
    106 H106       26.9412   30.4853    2.7445 H         1 UNK         0.0774 
    107 H107       28.5498   30.3133    0.1402 H         1 UNK         0.0815 
    108 H108       26.8466   30.7379    0.2817 H         1 UNK         0.0815 
    109 H109       28.0774   31.8023    0.9455 H         1 UNK         0.0815 
    110 H110       28.2998   31.4834    4.1773 H         1 UNK         0.2987 
    111 H111       30.4976   30.1155    5.2507 H         1 UNK         0.0949 
    112 H112       29.1407   31.6692    6.5837 H         1 UNK         0.0806 
    113 H113       30.8199   32.1728    6.6343 H         1 UNK         0.0806 
    114 H114       29.6784   33.0437    5.6191 H         1 UNK         0.0806 
    115 H115       30.5376   33.1039    3.3306 H         1 UNK         0.3010 
    116 H116       32.1218   34.2505    2.2167 H         1 UNK         0.0829 
    117 H117       32.5764   31.4090    1.1291 H         1 UNK         0.0813 
    118 H118       33.0017   32.9060    0.2885 H         1 UNK         0.0813 
    119 H119       31.3262   32.5284    0.6191 H         1 UNK         0.0813 
    120 H120       34.5335   32.1491    1.4675 H         1 UNK         0.3038 
    121 H121       36.1254   32.4352    3.9715 H         1 UNK         0.0769 
    122 H122       37.1464   33.8614    2.1603 H         1 UNK         0.0811 
    123 H123       37.2280   32.4521    1.1036 H         1 UNK         0.0811 
    124 H124       38.1774   32.5060    2.5836 H         1 UNK         0.0811 
    125 H125       34.0951   30.4628    2.9950 H         1 UNK         0.3204 
    126 H126       35.6643   28.0483    2.2735 H         1 UNK         0.0748 
    127 H127       32.6497   28.6178    2.3246 H         1 UNK         0.0771 
    128 H128       33.6764   28.5070    0.8986 H         1 UNK         0.0771 
    129 H129       33.3792   27.0813    1.8812 H         1 UNK         0.0771 
    130 H130       33.4704   29.3501    4.7964 H         1 UNK         0.2980 
    131 H131       34.7825   27.6866    6.7685 H         1 UNK         0.0545 
    132 H132       33.4222   30.7308    6.0144 H         1 UNK         0.3459 
    133 H133       33.4097   31.2831    7.6683 H         1 UNK         0.3459 
    134 H134       32.9232   26.5079    7.6609 H         1 UNK         0.0616 
    135 H135       32.9571   26.1487    5.9666 H         1 UNK         0.0616 
    136 H136       29.7581   27.8509    4.6022 H         1 UNK         0.0634 
    137 H137       31.4486   27.6894    4.2045 H         1 UNK         0.0634 
@<TRIPOS>BOND
     1    1    2 1    
     2    1   72 1    
     3    1   73 1    
     4    1   74 1    
     5    2    3 2    
     6    2    4 am   BACKBONE|DICT|INTERRES
     7    4    5 1    
     8    4   75 1    
     9    5    6 1    
    10    5   35 1    
    11    5   76 1    
    12    6    7 1    
    13    6   77 1    
    14    6   78 1    
    15    7    8 1    
    16    8    9 1    
    17    8   79 1    
    18    8   80 1    
    19    9   10 ar   
    20    9   14 ar   
    21   10   11 ar   
    22   10   81 1    
    23   11   12 ar   
    24   11   71 1    
    25   12   13 ar   
    26   12   82 1    
    27   13   14 ar   
    28   13   15 1    
    29   14   83 1    
    30   15   16 1    
    31   15   84 1    
    32   15   85 1    
    33   16   17 1    
    34   17   18 1    
    35   17   86 1    
    36   17   87 1    
    37   18   19 1    
    38   18   37 1    
    39   18   88 1    
    40   19   20 am   BACKBONE|DICT|INTERRES
    41   19   89 1    
    42   20   21 2    
    43   20   22 1    
    44   22   23 1    
    45   22   24 1    
    46   22   90 1    
    47   23   91 1    
    48   23   92 1    
    49   23   93 1    
    50   24   25 am   BACKBONE|DICT|INTERRES
    51   24   94 1    
    52   25   26 2    
    53   25   27 1    
    54   27   28 1    
    55   27   29 1    
    56   27   95 1    
    57   28   96 1    
    58   28   97 1    
    59   28   98 1    
    60   29   30 am   BACKBONE|DICT|INTERRES
    61   29   99 1    
    62   30   31 2    
    63   30   32 1    
    64   32   33 1    
    65   32   34 1    
    66   32  100 1    
    67   33  101 1    
    68   33  102 1    
    69   33  103 1    
    70   34   35 am   BACKBONE|DICT|INTERRES
    71   34  104 1    
    72   35   36 2    
    73   37   38 2    
    74   37   39 am   BACKBONE|DICT|INTERRES
    75   39   40 1    
    76   39  105 1    
    77   40   41 1    
    78   40   42 1    
    79   40  106 1    
    80   41  107 1    
    81   41  108 1    
    82   41  109 1    
    83   42   43 2    
    84   42   44 am   BACKBONE|DICT|INTERRES
    85   44   45 1    
    86   44  110 1    
    87   45   46 1    
    88   45   47 1    
    89   45  111 1    
    90   46  112 1    
    91   46  113 1    
    92   46  114 1    
    93   47   48 2    
    94   47   49 am   BACKBONE|DICT|INTERRES
    95   49   50 1    
    96   49  115 1    
    97   50   51 1    
    98   50   52 1    
    99   50  116 1    
   100   51  117 1    
   101   51  118 1    
   102   51  119 1    
   103   52   53 2    
   104   52   54 am   BACKBONE|DICT|INTERRES
   105   54   55 1    
   106   54  120 1    
   107   55   56 1    
   108   55   57 1    
   109   55  121 1    
   110   56  122 1    
   111   56  123 1    
   112   56  124 1    
   113   57   58 2    
   114   57   59 am   BACKBONE|DICT|INTERRES
   115   59   60 1    
   116   59  125 1    
   117   60   61 1    
   118   60   62 1    
   119   60  126 1    
   120   61  127 1    
   121   61  128 1    
   122   61  129 1    
   123   62   63 2    
   124   62   64 am   BACKBONE|DICT|INTERRES
   125   64   65 1    
   126   64  130 1    
   127   65   66 1    
   128   65   69 1    
   129   65  131 1    
   130   66   67 am   BACKBONE|DICT|INTERRES
   131   66   68 2    
   132   67  132 1    
   133   67  133 1    
   134   69   70 1    
   135   69  134 1    
   136   69  135 1    
   137   70   71 1    
   138   71  136 1    
   139   71  137 1    
@<TRIPOS>SUBSTRUCTURE
     1 UNK         1 GROUP             0       ****    0 ROOT    
