@<TRIPOS>MOLECULE
3R136
137   139    1
SMALL
USER_CHARGES


@<TRIPOS>ATOM
      1 CA         27.6787   21.6611    2.2413 C.3       0 UNK        -0.1979 
      2 C          28.6441   21.8543    1.0813 C.2       0 UNK         0.4864 
      3 O          28.5586   21.1351    0.0854 O.2       0 UNK        -0.5359 
      4 N          29.5566   22.8281    1.1997 N.am      1 UNK        -0.4318 
      5 CA         30.5349   23.1969    0.1668 C.3       1 UNK         0.0824 
      6 C6         31.7006   24.0198    0.7686 C.3       12 UNK        -0.0944 
      7 S7         32.8706   23.0130    1.7472 S.3       12 UNK        -0.2672 
      8 C8         32.0354   22.7515    3.3534 C.3       12 UNK         0.0333 
      9 C9         31.4330   24.0102    3.9706 C.ar      12 UNK        -0.0807 
     10 C10        32.1529   25.2091    4.0087 C.ar      12 UNK        -0.0894 
     11 C11        31.5910   26.3682    4.5587 C.ar      12 UNK        -0.0804 
     12 C12        30.3087   26.2993    5.1126 C.ar      12 UNK        -0.0824 
     13 C13        29.5827   25.1040    5.0997 C.ar      12 UNK        -0.0762 
     14 C14        30.1516   23.9636    4.5277 C.ar      12 UNK        -0.0782 
     15 C15        28.1978   25.0307    5.7311 C.3       12 UNK         0.0230 
     16 S16        26.8613   25.1228    4.4949 S.3       12 UNK        -0.2608 
     17 C17        26.9003   26.8890    4.0390 C.3       12 UNK        -0.0989 
     18 CA         26.6853   27.0984    2.5148 C.3       5 UNK         0.0716 
     19 N          25.3492   26.7047    2.0539 N.am      5 UNK        -0.4135 
     20 C          24.1839   27.2917    2.3721 C.2       4 UNK         0.5031 
     21 O          24.0866   28.2226    3.1737 O.2       4 UNK        -0.5229 
     22 CA         22.9118   26.7653    1.6667 C.3       4 UNK         0.0329 
     23 CB         21.8415   27.8646    1.4937 C.3       4 UNK        -0.2001 
     24 N          23.1682   26.0962    0.3824 N.am      4 UNK        -0.4303 
     25 C          23.7868   26.6190   -0.6861 C.2       3 UNK         0.5044 
     26 O          24.2109   27.7745   -0.7487 O.2       3 UNK        -0.5152 
     27 CA         24.0578   25.6556   -1.8532 C.3       3 UNK         0.0319 
     28 CB         23.3121   26.1085   -3.1188 C.3       3 UNK        -0.2001 
     29 N          25.4925   25.5586   -2.1401 N.am      3 UNK        -0.4354 
     30 C          26.4322   25.2009   -1.2541 C.2       2 UNK         0.4964 
     31 O          26.1930   24.8612   -0.0894 O.2       2 UNK        -0.5047 
     32 CA         27.8844   25.2693   -1.7365 C.3       2 UNK         0.0288 
     33 CB         28.3641   26.7276   -1.8393 C.3       2 UNK        -0.2113 
     34 N          28.7056   24.5504   -0.7721 N.am      2 UNK        -0.4145 
     35 C          29.8846   23.9648   -1.0064 C.2       1 UNK         0.5006 
     36 O          30.4626   24.0100   -2.0938 O.2       1 UNK        -0.5103 
     37 C          27.0928   28.5110    2.0321 C.2       5 UNK         0.5055 
     38 O          27.8968   29.1719    2.6941 O.2       5 UNK        -0.5220 
     39 N          26.5942   28.9455    0.8621 N.am      6 UNK        -0.4450 
     40 CA         26.9656   30.2038    0.1986 C.3       6 UNK         0.0367 
     41 CB         25.8542   30.5945   -0.7926 C.3       6 UNK        -0.1929 
     42 C          28.3568   30.1299   -0.4720 C.2       6 UNK         0.5070 
     43 O          28.4911   30.4216   -1.6617 O.2       6 UNK        -0.5237 
     44 N          29.3582   29.7043    0.3042 N.am      7 UNK        -0.4739 
     45 CA         30.7560   29.5390   -0.0850 C.3       7 UNK         0.0276 
     46 CB         31.2423   28.1664    0.4307 C.3       7 UNK        -0.1927 
     47 C          31.5787   30.7335    0.4370 C.2       7 UNK         0.5013 
     48 O          31.1018   31.8692    0.3921 O.2       7 UNK        -0.5193 
     49 N          32.7936   30.4712    0.9371 N.am      8 UNK        -0.4253 
     50 CA         33.7239   31.4693    1.4792 C.3       8 UNK         0.0242 
     51 CB         35.1606   30.9397    1.3222 C.3       8 UNK        -0.2000 
     52 C          33.4317   31.8772    2.9394 C.2       8 UNK         0.4948 
     53 O          34.2541   32.5724    3.5394 O.2       8 UNK        -0.5275 
     54 N          32.2958   31.4313    3.4973 N.am      9 UNK        -0.4246 
     55 CA         31.7601   31.6755    4.8453 C.3       9 UNK         0.0261 
     56 CB         31.4880   33.1735    5.0873 C.3       9 UNK        -0.1959 
     57 C          32.5985   31.0652    5.9820 C.2       9 UNK         0.5033 
     58 O          32.0576   30.2998    6.7804 O.2       9 UNK        -0.5390 
     59 N          33.8924   31.3987    6.0312 N.am      10 UNK        -0.4215 
     60 CA         34.8715   30.8096    6.9446 C.3       10 UNK         0.0240 
     61 CB         36.0440   31.7839    7.1483 C.3       10 UNK        -0.1982 
     62 C          35.3638   29.4526    6.4201 C.2       10 UNK         0.4970 
     63 O          35.3755   28.4804    7.1750 O.2       10 UNK        -0.4916 
     64 N          35.7442   29.4222    5.1342 N.am      11 UNK        -0.4279 
     65 CA         36.2058   28.2383    4.3843 C.3       11 UNK         0.1003 
     66 C          37.5270   27.5951    4.9096 C.2       11 UNK         0.5709 
     67 N          38.3459   28.3064    5.6757 N.am      11 UNK        -0.7358 
     68 O          37.8376   26.4490    4.5929 O.2       11 UNK        -0.4999 
     69 C69        35.0762   27.1954    4.1415 C.3       12 UNK        -0.0954 
     70 S70        33.6178   27.9237    3.3180 S.3       12 UNK        -0.2268 
     71 C71        32.3294   27.7073    4.5932 C.3       12 UNK         0.0203 
     72 H72        27.7441   22.4714    2.9667 H         1 UNK         0.0888 
     73 H73        26.6536   21.6270    1.8731 H         1 UNK         0.0888 
     74 H74        27.8892   20.7231    2.7541 H         1 UNK         0.0888 
     75 H75        29.5885   23.3833    2.0425 H         1 UNK         0.3017 
     76 H76        30.9459   22.2783   -0.2581 H         1 UNK         0.0873 
     77 H77        31.3282   24.8593    1.3574 H         1 UNK         0.0745 
     78 H78        32.2985   24.4703   -0.0266 H         1 UNK         0.0745 
     79 H79        31.2738   21.9818    3.2226 H         1 UNK         0.0705 
     80 H80        32.7615   22.3380    4.0543 H         1 UNK         0.0705 
     81 H81        33.1484   25.2307    3.5906 H         1 UNK         0.1334 
     82 H82        29.8764   27.1831    5.5620 H         1 UNK         0.1417 
     83 H83        29.5961   23.0356    4.5319 H         1 UNK         0.1562 
     84 H84        28.0661   25.8237    6.4691 H         1 UNK         0.0748 
     85 H85        28.1008   24.0924    6.2793 H         1 UNK         0.0748 
     86 H86        27.8597   27.2996    4.3499 H         1 UNK         0.0940 
     87 H87        26.1501   27.4252    4.6216 H         1 UNK         0.0940 
     88 H88        27.3780   26.4316    1.9987 H         1 UNK         0.0703 
     89 H89        25.3420   25.9482    1.3767 H         1 UNK         0.3081 
     90 H90        22.4987   26.0034    2.3294 H         1 UNK         0.0719 
     91 H91        22.2116   28.6972    0.8943 H         1 UNK         0.0809 
     92 H92        20.9461   27.4748    1.0098 H         1 UNK         0.0809 
     93 H93        21.5342   28.2704    2.4583 H         1 UNK         0.0809 
     94 H94        22.8962   25.1231    0.3413 H         1 UNK         0.2990 
     95 H95        23.7053   24.6575   -1.5849 H         1 UNK         0.0690 
     96 H96        23.4570   25.4057   -3.9395 H         1 UNK         0.0788 
     97 H97        23.6462   27.0915   -3.4541 H         1 UNK         0.0788 
     98 H98        22.2387   26.1748   -2.9359 H         1 UNK         0.0788 
     99 H99        25.7834   25.8532   -3.0610 H         1 UNK         0.2993 
    100 H100       27.9513   24.7801   -2.7108 H         1 UNK         0.0949 
    101 H101       27.7533   27.3037   -2.5355 H         1 UNK         0.0767 
    102 H102       28.3139   27.2252   -0.8715 H         1 UNK         0.0767 
    103 H103       29.3943   26.7853   -2.1911 H         1 UNK         0.0767 
    104 H104       28.2498   24.4045    0.1199 H         1 UNK         0.3013 
    105 H105       25.9185   28.3698    0.3704 H         1 UNK         0.3121 
    106 H106       27.0200   30.9891    0.9556 H         1 UNK         0.0774 
    107 H107       24.8854   30.6626   -0.2974 H         1 UNK         0.0815 
    108 H108       26.0562   31.5661   -1.2450 H         1 UNK         0.0815 
    109 H109       25.7650   29.8691   -1.6023 H         1 UNK         0.0815 
    110 H110       29.1325   29.5307    1.2800 H         1 UNK         0.2987 
    111 H111       30.8437   29.5440   -1.1736 H         1 UNK         0.0949 
    112 H112       32.2626   27.9503    0.1119 H         1 UNK         0.0806 
    113 H113       31.2071   28.1047    1.5191 H         1 UNK         0.0806 
    114 H114       30.6215   27.3594    0.0426 H         1 UNK         0.0806 
    115 H115       33.1020   29.5094    0.9699 H         1 UNK         0.3010 
    116 H116       33.6406   32.3806    0.8832 H         1 UNK         0.0829 
    117 H117       35.3918   30.7286    0.2780 H         1 UNK         0.0813 
    118 H118       35.8937   31.6693    1.6691 H         1 UNK         0.0813 
    119 H119       35.3164   30.0235    1.8899 H         1 UNK         0.0813 
    120 H120       31.7164   30.8464    2.9132 H         1 UNK         0.3038 
    121 H121       30.7943   31.1675    4.8677 H         1 UNK         0.0769 
    122 H122       32.4026   33.7668    5.0760 H         1 UNK         0.0811 
    123 H123       31.0137   33.3300    6.0570 H         1 UNK         0.0811 
    124 H124       30.8175   33.5798    4.3300 H         1 UNK         0.0811 
    125 H125       34.2343   32.0069    5.2885 H         1 UNK         0.3204 
    126 H126       34.3978   30.6445    7.9150 H         1 UNK         0.0748 
    127 H127       35.7040   32.7203    7.5911 H         1 UNK         0.0771 
    128 H128       36.7904   31.3609    7.8221 H         1 UNK         0.0771 
    129 H129       36.5464   32.0232    6.2102 H         1 UNK         0.0771 
    130 H130       35.7114   30.2810    4.6064 H         1 UNK         0.2980 
    131 H131       36.4874   28.6222    3.4040 H         1 UNK         0.0545 
    132 H132       39.2029   27.8881    6.0016 H         1 UNK         0.3459 
    133 H133       38.1137   29.2512    5.9351 H         1 UNK         0.3459 
    134 H134       35.4334   26.3900    3.4978 H         1 UNK         0.0616 
    135 H135       34.7821   26.7225    5.0797 H         1 UNK         0.0616 
    136 H136       32.7612   27.8547    5.5836 H         1 UNK         0.0634 
    137 H137       31.6048   28.5104    4.4525 H         1 UNK         0.0634 
@<TRIPOS>BOND
     1    1    2 1    
     2    1   72 1    
     3    1   73 1    
     4    1   74 1    
     5    2    3 2    
     6    2    4 am   BACKBONE|DICT|INTERRES
     7    4    5 1    
     8    4   75 1    
     9    5    6 1    
    10    5   35 1    
    11    5   76 1    
    12    6    7 1    
    13    6   77 1    
    14    6   78 1    
    15    7    8 1    
    16    8    9 1    
    17    8   79 1    
    18    8   80 1    
    19    9   10 ar   
    20    9   14 ar   
    21   10   11 ar   
    22   10   81 1    
    23   11   12 ar   
    24   11   71 1    
    25   12   13 ar   
    26   12   82 1    
    27   13   14 ar   
    28   13   15 1    
    29   14   83 1    
    30   15   16 1    
    31   15   84 1    
    32   15   85 1    
    33   16   17 1    
    34   17   18 1    
    35   17   86 1    
    36   17   87 1    
    37   18   19 1    
    38   18   37 1    
    39   18   88 1    
    40   19   20 am   BACKBONE|DICT|INTERRES
    41   19   89 1    
    42   20   21 2    
    43   20   22 1    
    44   22   23 1    
    45   22   24 1    
    46   22   90 1    
    47   23   91 1    
    48   23   92 1    
    49   23   93 1    
    50   24   25 am   BACKBONE|DICT|INTERRES
    51   24   94 1    
    52   25   26 2    
    53   25   27 1    
    54   27   28 1    
    55   27   29 1    
    56   27   95 1    
    57   28   96 1    
    58   28   97 1    
    59   28   98 1    
    60   29   30 am   BACKBONE|DICT|INTERRES
    61   29   99 1    
    62   30   31 2    
    63   30   32 1    
    64   32   33 1    
    65   32   34 1    
    66   32  100 1    
    67   33  101 1    
    68   33  102 1    
    69   33  103 1    
    70   34   35 am   BACKBONE|DICT|INTERRES
    71   34  104 1    
    72   35   36 2    
    73   37   38 2    
    74   37   39 am   BACKBONE|DICT|INTERRES
    75   39   40 1    
    76   39  105 1    
    77   40   41 1    
    78   40   42 1    
    79   40  106 1    
    80   41  107 1    
    81   41  108 1    
    82   41  109 1    
    83   42   43 2    
    84   42   44 am   BACKBONE|DICT|INTERRES
    85   44   45 1    
    86   44  110 1    
    87   45   46 1    
    88   45   47 1    
    89   45  111 1    
    90   46  112 1    
    91   46  113 1    
    92   46  114 1    
    93   47   48 2    
    94   47   49 am   BACKBONE|DICT|INTERRES
    95   49   50 1    
    96   49  115 1    
    97   50   51 1    
    98   50   52 1    
    99   50  116 1    
   100   51  117 1    
   101   51  118 1    
   102   51  119 1    
   103   52   53 2    
   104   52   54 am   BACKBONE|DICT|INTERRES
   105   54   55 1    
   106   54  120 1    
   107   55   56 1    
   108   55   57 1    
   109   55  121 1    
   110   56  122 1    
   111   56  123 1    
   112   56  124 1    
   113   57   58 2    
   114   57   59 am   BACKBONE|DICT|INTERRES
   115   59   60 1    
   116   59  125 1    
   117   60   61 1    
   118   60   62 1    
   119   60  126 1    
   120   61  127 1    
   121   61  128 1    
   122   61  129 1    
   123   62   63 2    
   124   62   64 am   BACKBONE|DICT|INTERRES
   125   64   65 1    
   126   64  130 1    
   127   65   66 1    
   128   65   69 1    
   129   65  131 1    
   130   66   67 am   BACKBONE|DICT|INTERRES
   131   66   68 2    
   132   67  132 1    
   133   67  133 1    
   134   69   70 1    
   135   69  134 1    
   136   69  135 1    
   137   70   71 1    
   138   71  136 1    
   139   71  137 1    
@<TRIPOS>SUBSTRUCTURE
     1 UNK         1 GROUP             0       ****    0 ROOT    
