@<TRIPOS>MOLECULE
3R136
137   139    1
SMALL
USER_CHARGES


@<TRIPOS>ATOM
      1 CA         30.2536   26.2772   -4.4701 C.3       0 UNK        -0.1979 
      2 C          29.6277   26.3940   -3.0888 C.2       0 UNK         0.4864 
      3 O          29.1468   27.4667   -2.7256 O.2       0 UNK        -0.5359 
      4 N          29.6305   25.2973   -2.3174 N.am      1 UNK        -0.4318 
      5 CA         29.1253   25.2294   -0.9378 C.3       1 UNK         0.0824 
      6 C6         29.5616   23.9295   -0.2128 C.3       12 UNK        -0.0944 
      7 S7         31.3580   23.6318   -0.3262 S.3       12 UNK        -0.2672 
      8 C8         31.6796   22.6219    1.1523 C.3       12 UNK         0.0333 
      9 C9         31.7834   23.4505    2.4265 C.ar      12 UNK        -0.0807 
     10 C10        32.7872   24.4175    2.5601 C.ar      12 UNK        -0.0894 
     11 C11        32.9363   25.1273    3.7555 C.ar      12 UNK        -0.0804 
     12 C12        32.0755   24.8588    4.8224 C.ar      12 UNK        -0.0824 
     13 C13        31.0568   23.9111    4.6969 C.ar      12 UNK        -0.0762 
     14 C14        30.9162   23.2071    3.4970 C.ar      12 UNK        -0.0782 
     15 C15        30.1273   23.6368    5.8717 C.3       12 UNK         0.0230 
     16 S16        28.4182   24.1829    5.5585 S.3       12 UNK        -0.2608 
     17 C17        28.6332   25.9445    5.1207 C.3       12 UNK        -0.0989 
     18 CA         28.3520   26.1886    3.6113 C.3       5 UNK         0.0716 
     19 N          27.0003   25.7870    3.1985 N.am      5 UNK        -0.4135 
     20 C          25.8403   26.3212    3.6129 C.2       4 UNK         0.5031 
     21 O          25.7543   27.1963    4.4754 O.2       4 UNK        -0.5229 
     22 CA         24.5494   25.8176    2.9457 C.3       4 UNK         0.0329 
     23 CB         23.7976   26.9802    2.2722 C.3       4 UNK        -0.2001 
     24 N          24.8085   24.7928    1.9329 N.am      4 UNK        -0.4303 
     25 C          24.2581   23.5713    1.8939 C.2       3 UNK         0.5044 
     26 O          23.5162   23.1293    2.7728 O.2       3 UNK        -0.5152 
     27 CA         24.5954   22.6877    0.6697 C.3       3 UNK         0.0319 
     28 CB         23.4060   21.8059    0.2334 C.3       3 UNK        -0.2001 
     29 N          25.1403   23.4399   -0.4712 N.am      3 UNK        -0.4354 
     30 C          24.5447   24.4286   -1.1592 C.2       2 UNK         0.4964 
     31 O          23.3637   24.7465   -1.0143 O.2       2 UNK        -0.5047 
     32 CA         25.4262   25.2288   -2.1414 C.3       2 UNK         0.0288 
     33 CB         25.0484   26.7261   -2.1561 C.3       2 UNK        -0.2113 
     34 N          26.8760   25.0807   -1.9326 N.am      2 UNK        -0.4145 
     35 C          27.5953   25.4050   -0.8438 C.2       1 UNK         0.5006 
     36 O          27.1054   25.8054    0.2157 O.2       1 UNK        -0.5103 
     37 C          28.6469   27.6329    3.1491 C.2       5 UNK         0.5055 
     38 O          29.1086   28.4586    3.9358 O.2       5 UNK        -0.5220 
     39 N          28.3288   27.9138    1.8775 N.am      6 UNK        -0.4450 
     40 CA         28.3651   29.2473    1.2710 C.3       6 UNK         0.0367 
     41 CB         27.0640   29.4327    0.4678 C.3       6 UNK        -0.1929 
     42 C          29.5974   29.4875    0.3763 C.2       6 UNK         0.5070 
     43 O          29.6177   30.4851   -0.3459 O.2       6 UNK        -0.5237 
     44 N          30.5878   28.5826    0.4031 N.am      7 UNK        -0.4739 
     45 CA         31.7370   28.5880   -0.5137 C.3       7 UNK         0.0276 
     46 CB         32.4990   27.2582   -0.4012 C.3       7 UNK        -0.1927 
     47 C          32.7021   29.7760   -0.3513 C.2       7 UNK         0.5013 
     48 O          33.3457   30.1590   -1.3298 O.2       7 UNK        -0.5193 
     49 N          32.7932   30.3347    0.8589 N.am      8 UNK        -0.4253 
     50 CA         33.6351   31.4752    1.2063 C.3       8 UNK         0.0242 
     51 CB         35.0978   31.0191    1.3812 C.3       8 UNK        -0.2000 
     52 C          33.1040   32.0936    2.5012 C.2       8 UNK         0.4948 
     53 O          32.3668   31.4325    3.2344 O.2       8 UNK        -0.5275 
     54 N          33.5340   33.3267    2.7997 N.am      9 UNK        -0.4246 
     55 CA         33.2000   34.0451    4.0379 C.3       9 UNK         0.0261 
     56 CB         33.7144   35.4908    3.9402 C.3       9 UNK        -0.1959 
     57 C          33.7325   33.3683    5.3176 C.2       9 UNK         0.5033 
     58 O          33.1744   33.5868    6.3935 O.2       9 UNK        -0.5390 
     59 N          34.7910   32.5584    5.1777 N.am      10 UNK        -0.4215 
     60 CA         35.3737   31.7419    6.2424 C.3       10 UNK         0.0240 
     61 CB         36.8089   31.3588    5.8434 C.3       10 UNK        -0.1982 
     62 C          34.5563   30.4771    6.5698 C.2       10 UNK         0.4970 
     63 O          34.7562   29.9127    7.6465 O.2       10 UNK        -0.4916 
     64 N          33.6846   30.0324    5.6534 N.am      11 UNK        -0.4279 
     65 CA         32.8334   28.8486    5.8339 C.3       11 UNK         0.1003 
     66 C          31.6713   29.1084    6.8311 C.2       11 UNK         0.5709 
     67 N          31.2722   28.0987    7.5939 N.am      11 UNK        -0.7358 
     68 O          31.1136   30.2018    6.9048 O.2       11 UNK        -0.4999 
     69 C69        32.2925   28.3155    4.4834 C.3       12 UNK        -0.0954 
     70 S70        33.5998   27.8086    3.3173 S.3       12 UNK        -0.2268 
     71 C71        34.0547   26.1491    3.9171 C.3       12 UNK         0.0203 
     72 H72        30.6385   25.2755   -4.6607 H         1 UNK         0.0888 
     73 H73        29.5156   26.5096   -5.2374 H         1 UNK         0.0888 
     74 H74        31.0795   26.9815   -4.5665 H         1 UNK         0.0888 
     75 H75        30.0664   24.4517   -2.6589 H         1 UNK         0.3017 
     76 H76        29.5596   26.0714   -0.3977 H         1 UNK         0.0873 
     77 H77        29.0523   23.0593   -0.6317 H         1 UNK         0.0745 
     78 H78        29.2811   23.9743    0.8415 H         1 UNK         0.0745 
     79 H79        30.9083   21.8548    1.2388 H         1 UNK         0.0705 
     80 H80        32.6214   22.0905    1.0089 H         1 UNK         0.0705 
     81 H81        33.4633   24.6049    1.7368 H         1 UNK         0.1334 
     82 H82        32.1999   25.3920    5.7544 H         1 UNK         0.1417 
     83 H83        30.1391   22.4600    3.4070 H         1 UNK         0.1562 
     84 H84        30.4907   24.1237    6.7781 H         1 UNK         0.0748 
     85 H85        30.1224   22.5667    6.0832 H         1 UNK         0.0748 
     86 H86        29.6407   26.2661    5.3856 H         1 UNK         0.0940 
     87 H87        27.9651   26.5415    5.7430 H         1 UNK         0.0940 
     88 H88        29.0420   25.5595    3.0467 H         1 UNK         0.0703 
     89 H89        26.9580   25.0842    2.4760 H         1 UNK         0.3081 
     90 H90        23.9224   25.4160    3.7442 H         1 UNK         0.0719 
     91 H91        23.5509   27.7620    2.9917 H         1 UNK         0.0809 
     92 H92        24.3926   27.4378    1.4807 H         1 UNK         0.0809 
     93 H93        22.8606   26.6406    1.8301 H         1 UNK         0.0809 
     94 H94        25.4040   25.0747    1.1615 H         1 UNK         0.2990 
     95 H95        25.3939   22.0207    0.9978 H         1 UNK         0.0690 
     96 H96        23.6644   21.1876   -0.6262 H         1 UNK         0.0788 
     97 H97        22.5335   22.4033   -0.0326 H         1 UNK         0.0788 
     98 H98        23.1031   21.1315    1.0353 H         1 UNK         0.0788 
     99 H99        26.1079   23.2502   -0.6892 H         1 UNK         0.2993 
    100 H100       25.2153   24.8223   -3.1317 H         1 UNK         0.0949 
    101 H101       25.1440   27.1758   -1.1671 H         1 UNK         0.0767 
    102 H102       25.6820   27.2890   -2.8419 H         1 UNK         0.0767 
    103 H103       24.0166   26.8696   -2.4793 H         1 UNK         0.0767 
    104 H104       27.3917   24.7399   -2.7323 H         1 UNK         0.3013 
    105 H105       27.9177   27.1787    1.3086 H         1 UNK         0.3121 
    106 H106       28.3886   30.0100    2.0523 H         1 UNK         0.0774 
    107 H107       27.0086   28.7371   -0.3708 H         1 UNK         0.0815 
    108 H108       26.1852   29.2765    1.0934 H         1 UNK         0.0815 
    109 H109       26.9914   30.4416    0.0597 H         1 UNK         0.0815 
    110 H110       30.5199   27.8148    1.0539 H         1 UNK         0.2987 
    111 H111       31.3399   28.6570   -1.5288 H         1 UNK         0.0949 
    112 H112       31.8969   26.4305   -0.7677 H         1 UNK         0.0806 
    113 H113       33.4102   27.2723   -1.0009 H         1 UNK         0.0806 
    114 H114       32.7882   27.0362    0.6251 H         1 UNK         0.0806 
    115 H115       32.2120   29.9957    1.6164 H         1 UNK         0.3010 
    116 H116       33.5690   32.2229    0.4129 H         1 UNK         0.0829 
    117 H117       35.1951   30.2779    2.1756 H         1 UNK         0.0813 
    118 H118       35.7487   31.8573    1.6320 H         1 UNK         0.0813 
    119 H119       35.4898   30.5760    0.4657 H         1 UNK         0.0813 
    120 H120       34.1388   33.8058    2.1470 H         1 UNK         0.3038 
    121 H121       32.1112   34.0742    4.1196 H         1 UNK         0.0769 
    122 H122       33.2740   36.0133    3.0908 H         1 UNK         0.0811 
    123 H123       34.7993   35.5282    3.8340 H         1 UNK         0.0811 
    124 H124       33.4555   36.0581    4.8355 H         1 UNK         0.0811 
    125 H125       35.1944   32.4613    4.2580 H         1 UNK         0.3204 
    126 H126       35.4216   32.3439    7.1525 H         1 UNK         0.0748 
    127 H127       36.8287   30.7548    4.9351 H         1 UNK         0.0771 
    128 H128       37.4238   32.2430    5.6738 H         1 UNK         0.0771 
    129 H129       37.2917   30.7781    6.6308 H         1 UNK         0.0771 
    130 H130       33.5010   30.5774    4.8204 H         1 UNK         0.2980 
    131 H131       33.4588   28.0654    6.2664 H         1 UNK         0.0545 
    132 H132       31.7329   27.2041    7.5654 H         1 UNK         0.3459 
    133 H133       30.5129   28.2494    8.2392 H         1 UNK         0.3459 
    134 H134       31.6920   29.0815    3.9934 H         1 UNK         0.0616 
    135 H135       31.6135   27.4793    4.6374 H         1 UNK         0.0616 
    136 H136       34.9342   25.8138    3.3656 H         1 UNK         0.0634 
    137 H137       34.3642   26.2143    4.9610 H         1 UNK         0.0634 
@<TRIPOS>BOND
     1    1    2 1    
     2    1   72 1    
     3    1   73 1    
     4    1   74 1    
     5    2    3 2    
     6    2    4 am   BACKBONE|DICT|INTERRES
     7    4    5 1    
     8    4   75 1    
     9    5    6 1    
    10    5   35 1    
    11    5   76 1    
    12    6    7 1    
    13    6   77 1    
    14    6   78 1    
    15    7    8 1    
    16    8    9 1    
    17    8   79 1    
    18    8   80 1    
    19    9   10 ar   
    20    9   14 ar   
    21   10   11 ar   
    22   10   81 1    
    23   11   12 ar   
    24   11   71 1    
    25   12   13 ar   
    26   12   82 1    
    27   13   14 ar   
    28   13   15 1    
    29   14   83 1    
    30   15   16 1    
    31   15   84 1    
    32   15   85 1    
    33   16   17 1    
    34   17   18 1    
    35   17   86 1    
    36   17   87 1    
    37   18   19 1    
    38   18   37 1    
    39   18   88 1    
    40   19   20 am   BACKBONE|DICT|INTERRES
    41   19   89 1    
    42   20   21 2    
    43   20   22 1    
    44   22   23 1    
    45   22   24 1    
    46   22   90 1    
    47   23   91 1    
    48   23   92 1    
    49   23   93 1    
    50   24   25 am   BACKBONE|DICT|INTERRES
    51   24   94 1    
    52   25   26 2    
    53   25   27 1    
    54   27   28 1    
    55   27   29 1    
    56   27   95 1    
    57   28   96 1    
    58   28   97 1    
    59   28   98 1    
    60   29   30 am   BACKBONE|DICT|INTERRES
    61   29   99 1    
    62   30   31 2    
    63   30   32 1    
    64   32   33 1    
    65   32   34 1    
    66   32  100 1    
    67   33  101 1    
    68   33  102 1    
    69   33  103 1    
    70   34   35 am   BACKBONE|DICT|INTERRES
    71   34  104 1    
    72   35   36 2    
    73   37   38 2    
    74   37   39 am   BACKBONE|DICT|INTERRES
    75   39   40 1    
    76   39  105 1    
    77   40   41 1    
    78   40   42 1    
    79   40  106 1    
    80   41  107 1    
    81   41  108 1    
    82   41  109 1    
    83   42   43 2    
    84   42   44 am   BACKBONE|DICT|INTERRES
    85   44   45 1    
    86   44  110 1    
    87   45   46 1    
    88   45   47 1    
    89   45  111 1    
    90   46  112 1    
    91   46  113 1    
    92   46  114 1    
    93   47   48 2    
    94   47   49 am   BACKBONE|DICT|INTERRES
    95   49   50 1    
    96   49  115 1    
    97   50   51 1    
    98   50   52 1    
    99   50  116 1    
   100   51  117 1    
   101   51  118 1    
   102   51  119 1    
   103   52   53 2    
   104   52   54 am   BACKBONE|DICT|INTERRES
   105   54   55 1    
   106   54  120 1    
   107   55   56 1    
   108   55   57 1    
   109   55  121 1    
   110   56  122 1    
   111   56  123 1    
   112   56  124 1    
   113   57   58 2    
   114   57   59 am   BACKBONE|DICT|INTERRES
   115   59   60 1    
   116   59  125 1    
   117   60   61 1    
   118   60   62 1    
   119   60  126 1    
   120   61  127 1    
   121   61  128 1    
   122   61  129 1    
   123   62   63 2    
   124   62   64 am   BACKBONE|DICT|INTERRES
   125   64   65 1    
   126   64  130 1    
   127   65   66 1    
   128   65   69 1    
   129   65  131 1    
   130   66   67 am   BACKBONE|DICT|INTERRES
   131   66   68 2    
   132   67  132 1    
   133   67  133 1    
   134   69   70 1    
   135   69  134 1    
   136   69  135 1    
   137   70   71 1    
   138   71  136 1    
   139   71  137 1    
@<TRIPOS>SUBSTRUCTURE
     1 UNK         1 GROUP             0       ****    0 ROOT    
