@<TRIPOS>MOLECULE
3R136
137   139    1
SMALL
USER_CHARGES


@<TRIPOS>ATOM
      1 CA         26.7041   23.6920   -1.8384 C.3       0 UNK        -0.1979 
      2 C          27.1996   23.0128   -0.5718 C.2       0 UNK         0.4864 
      3 O          26.6129   22.0210   -0.1377 O.2       0 UNK        -0.5359 
      4 N          28.2552   23.5646    0.0423 N.am      1 UNK        -0.4318 
      5 CA         28.9751   23.0954    1.2412 C.3       1 UNK         0.0824 
      6 C6         29.5938   21.6803    1.1060 C.3       12 UNK        -0.0944 
      7 S7         30.7030   21.5331   -0.3364 S.3       12 UNK        -0.2672 
      8 C8         32.3437   21.7397    0.4244 C.3       12 UNK         0.0333 
      9 C9         32.6419   23.1947    0.7601 C.ar      12 UNK        -0.0807 
     10 C10        32.4976   23.6653    2.0678 C.ar      12 UNK        -0.0894 
     11 C11        32.8155   24.9894    2.3848 C.ar      12 UNK        -0.0804 
     12 C12        33.2820   25.8470    1.3830 C.ar      12 UNK        -0.0824 
     13 C13        33.4274   25.3892    0.0675 C.ar      12 UNK        -0.0762 
     14 C14        33.1014   24.0626   -0.2347 C.ar      12 UNK        -0.0782 
     15 C15        33.9803   26.2946   -1.0312 C.3       12 UNK         0.0230 
     16 S16        33.2137   27.9480   -1.0987 S.3       12 UNK        -0.2608 
     17 C17        31.4577   27.5410   -1.3900 C.3       12 UNK        -0.0989 
     18 CA         30.4884   28.6366   -0.8813 C.3       5 UNK         0.0716 
     19 N          29.1198   28.3795   -1.3413 N.am      5 UNK        -0.4135 
     20 C          28.0568   29.1544   -1.0888 C.2       4 UNK         0.5031 
     21 O          28.1226   30.2283   -0.4921 O.2       4 UNK        -0.5229 
     22 CA         26.6729   28.6119   -1.4799 C.3       4 UNK         0.0329 
     23 CB         26.7090   27.5395   -2.5918 C.3       4 UNK        -0.2001 
     24 N          25.9554   28.1173   -0.2970 N.am      4 UNK        -0.4303 
     25 C          26.3522   27.1492    0.5432 C.2       3 UNK         0.5044 
     26 O          27.4117   26.5238    0.4177 O.2       3 UNK        -0.5152 
     27 CA         25.4202   26.8184    1.7218 C.3       3 UNK         0.0319 
     28 CB         23.9218   26.9570    1.3760 C.3       3 UNK        -0.2001 
     29 N          25.7186   25.4558    2.1473 N.am      3 UNK        -0.4354 
     30 C          25.4374   24.8852    3.3254 C.2       2 UNK         0.4964 
     31 O          24.8455   25.4586    4.2401 O.2       2 UNK        -0.5047 
     32 CA         25.8842   23.4207    3.5146 C.3       2 UNK         0.0288 
     33 CB         24.6719   22.4766    3.4559 C.3       2 UNK        -0.2113 
     34 N          26.8520   23.0109    2.4936 N.am      2 UNK        -0.4145 
     35 C          28.1699   23.2334    2.5516 C.2       1 UNK         0.5006 
     36 O          28.7500   23.5842    3.5788 O.2       1 UNK        -0.5103 
     37 C          30.5675   28.8197    0.6527 C.2       5 UNK         0.5055 
     38 O          31.2482   29.7327    1.1178 O.2       5 UNK        -0.5220 
     39 N          29.8187   28.0051    1.4093 N.am      6 UNK        -0.4450 
     40 CA         29.7499   28.0880    2.8702 C.3       6 UNK         0.0367 
     41 CB         29.2302   26.7549    3.4211 C.3       6 UNK        -0.1929 
     42 C          28.9025   29.2636    3.3925 C.2       6 UNK         0.5070 
     43 O          28.9677   29.5497    4.5874 O.2       6 UNK        -0.5237 
     44 N          28.1233   29.9124    2.5154 N.am      7 UNK        -0.4739 
     45 CA         27.3830   31.1382    2.8196 C.3       7 UNK         0.0276 
     46 CB         26.0160   31.1031    2.1154 C.3       7 UNK        -0.1927 
     47 C          28.1857   32.3826    2.4042 C.2       7 UNK         0.5013 
     48 O          28.1617   33.3812    3.1241 O.2       7 UNK        -0.5193 
     49 N          28.8736   32.3053    1.2548 N.am      8 UNK        -0.4253 
     50 CA         29.7478   33.3515    0.7207 C.3       8 UNK         0.0242 
     51 CB         30.0862   33.0344   -0.7454 C.3       8 UNK        -0.2000 
     52 C          31.0305   33.5308    1.5495 C.2       8 UNK         0.4948 
     53 O          31.4016   34.6673    1.8480 O.2       8 UNK        -0.5275 
     54 N          31.6718   32.4115    1.9055 N.am      9 UNK        -0.4246 
     55 CA         32.8117   32.3333    2.8145 C.3       9 UNK         0.0261 
     56 CB         33.9639   31.5806    2.1152 C.3       9 UNK        -0.1959 
     57 C          32.3317   31.6799    4.1229 C.2       9 UNK         0.5033 
     58 O          31.2746   32.0600    4.6299 O.2       9 UNK        -0.5390 
     59 N          33.1015   30.7279    4.6600 N.am      10 UNK        -0.4215 
     60 CA         32.7987   29.9625    5.8656 C.3       10 UNK         0.0240 
     61 CB         32.9888   30.8376    7.1225 C.3       10 UNK        -0.1982 
     62 C          33.7218   28.7401    5.9160 C.2       10 UNK         0.4970 
     63 O          34.7464   28.7203    5.2285 O.2       10 UNK        -0.4916 
     64 N          33.3539   27.7739    6.7599 N.am      11 UNK        -0.4279 
     65 CA         34.1611   26.6121    7.1488 C.3       11 UNK         0.1003 
     66 C          34.1370   26.4655    8.6926 C.2       11 UNK         0.5709 
     67 N          35.1639   25.8611    9.2738 N.am      11 UNK        -0.7358 
     68 O          33.1893   26.8703    9.3658 O.2       11 UNK        -0.4999 
     69 C69        33.6730   25.3090    6.4621 C.3       12 UNK        -0.0954 
     70 S70        34.2247   25.1769    4.7313 S.3       12 UNK        -0.2268 
     71 C71        32.6823   25.4741    3.8192 C.3       12 UNK         0.0203 
     72 H72        26.3072   22.9535   -2.5341 H         1 UNK         0.0888 
     73 H73        25.9110   24.4004   -1.6015 H         1 UNK         0.0888 
     74 H74        27.5085   24.2256   -2.3431 H         1 UNK         0.0888 
     75 H75        28.6216   24.4248   -0.3415 H         1 UNK         0.3017 
     76 H76        29.8021   23.7984    1.3454 H         1 UNK         0.0873 
     77 H77        28.8101   20.9274    1.0073 H         1 UNK         0.0745 
     78 H78        30.1480   21.4160    2.0085 H         1 UNK         0.0745 
     79 H79        32.4237   21.1105    1.3122 H         1 UNK         0.0705 
     80 H80        33.0977   21.3698   -0.2721 H         1 UNK         0.0705 
     81 H81        32.1512   22.9975    2.8450 H         1 UNK         0.1334 
     82 H82        33.5445   26.8668    1.6302 H         1 UNK         0.1417 
     83 H83        33.2208   23.6940   -1.2447 H         1 UNK         0.1562 
     84 H84        33.8667   25.8270   -2.0106 H         1 UNK         0.0748 
     85 H85        35.0526   26.4155   -0.8727 H         1 UNK         0.0748 
     86 H86        31.2144   26.5802   -0.9332 H         1 UNK         0.0940 
     87 H87        31.3327   27.4026   -2.4652 H         1 UNK         0.0940 
     88 H88        30.7895   29.5854   -1.3303 H         1 UNK         0.0703 
     89 H89        28.9573   27.4992   -1.8065 H         1 UNK         0.3081 
     90 H90        26.1060   29.4633   -1.8597 H         1 UNK         0.0719 
     91 H91        25.6996   27.2586   -2.8924 H         1 UNK         0.0809 
     92 H92        27.2134   27.9149   -3.4834 H         1 UNK         0.0809 
     93 H93        27.2198   26.6295   -2.2804 H         1 UNK         0.0809 
     94 H94        25.0807   28.5822   -0.0991 H         1 UNK         0.2990 
     95 H95        25.6696   27.5015    2.5362 H         1 UNK         0.0690 
     96 H96        23.2909   26.6405    2.2067 H         1 UNK         0.0788 
     97 H97        23.6516   26.3530    0.5086 H         1 UNK         0.0788 
     98 H98        23.6529   27.9913    1.1600 H         1 UNK         0.0788 
     99 H99        26.2837   24.9421    1.4850 H         1 UNK         0.2993 
    100 H100       26.3406   23.3387    4.5036 H         1 UNK         0.0949 
    101 H101       24.1709   22.5227    2.4880 H         1 UNK         0.0767 
    102 H102       24.9675   21.4421    3.6318 H         1 UNK         0.0767 
    103 H103       23.9362   22.7370    4.2182 H         1 UNK         0.0767 
    104 H104       26.4851   22.6470    1.6163 H         1 UNK         0.3013 
    105 H105       29.2115   27.3266    0.9603 H         1 UNK         0.3121 
    106 H106       30.7631   28.2363    3.2503 H         1 UNK         0.0774 
    107 H107       28.2039   26.5602    3.1123 H         1 UNK         0.0815 
    108 H108       29.2498   26.7442    4.5116 H         1 UNK         0.0815 
    109 H109       29.8476   25.9258    3.0785 H         1 UNK         0.0815 
    110 H110       28.1568   29.6394    1.5416 H         1 UNK         0.2987 
    111 H111       27.2017   31.2065    3.8948 H         1 UNK         0.0949 
    112 H112       26.1136   31.0619    1.0304 H         1 UNK         0.0806 
    113 H113       25.4295   30.2411    2.4332 H         1 UNK         0.0806 
    114 H114       25.4352   31.9949    2.3542 H         1 UNK         0.0806 
    115 H115       28.7557   31.4760    0.6773 H         1 UNK         0.3010 
    116 H116       29.1980   34.2948    0.7475 H         1 UNK         0.0829 
    117 H117       29.1847   32.9727   -1.3554 H         1 UNK         0.0813 
    118 H118       30.7188   33.8112   -1.1771 H         1 UNK         0.0813 
    119 H119       30.6186   32.0873   -0.8414 H         1 UNK         0.0813 
    120 H120       31.2956   31.5106    1.6153 H         1 UNK         0.3038 
    121 H121       33.1660   33.3335    3.0712 H         1 UNK         0.0769 
    122 H122       33.7052   30.5429    1.8996 H         1 UNK         0.0811 
    123 H123       34.8695   31.5832    2.7230 H         1 UNK         0.0811 
    124 H124       34.2197   32.0556    1.1679 H         1 UNK         0.0811 
    125 H125       33.9498   30.4337    4.1901 H         1 UNK         0.3204 
    126 H126       31.7648   29.6139    5.8088 H         1 UNK         0.0748 
    127 H127       34.0072   31.2220    7.1926 H         1 UNK         0.0771 
    128 H128       32.3101   31.6905    7.1248 H         1 UNK         0.0771 
    129 H129       32.7896   30.2723    8.0338 H         1 UNK         0.0771 
    130 H130       32.5274   27.9054    7.3273 H         1 UNK         0.2980 
    131 H131       35.2028   26.7905    6.8733 H         1 UNK         0.0545 
    132 H132       35.9410   25.5154    8.7321 H         1 UNK         0.3459 
    133 H133       35.1619   25.7476   10.2755 H         1 UNK         0.3459 
    134 H134       34.0753   24.4308    6.9708 H         1 UNK         0.0616 
    135 H135       32.5875   25.2176    6.5274 H         1 UNK         0.0616 
    136 H136       32.4463   26.5384    3.8468 H         1 UNK         0.0634 
    137 H137       31.8553   24.9552    4.3065 H         1 UNK         0.0634 
@<TRIPOS>BOND
     1    1    2 1    
     2    1   72 1    
     3    1   73 1    
     4    1   74 1    
     5    2    3 2    
     6    2    4 am   BACKBONE|DICT|INTERRES
     7    4    5 1    
     8    4   75 1    
     9    5    6 1    
    10    5   35 1    
    11    5   76 1    
    12    6    7 1    
    13    6   77 1    
    14    6   78 1    
    15    7    8 1    
    16    8    9 1    
    17    8   79 1    
    18    8   80 1    
    19    9   10 ar   
    20    9   14 ar   
    21   10   11 ar   
    22   10   81 1    
    23   11   12 ar   
    24   11   71 1    
    25   12   13 ar   
    26   12   82 1    
    27   13   14 ar   
    28   13   15 1    
    29   14   83 1    
    30   15   16 1    
    31   15   84 1    
    32   15   85 1    
    33   16   17 1    
    34   17   18 1    
    35   17   86 1    
    36   17   87 1    
    37   18   19 1    
    38   18   37 1    
    39   18   88 1    
    40   19   20 am   BACKBONE|DICT|INTERRES
    41   19   89 1    
    42   20   21 2    
    43   20   22 1    
    44   22   23 1    
    45   22   24 1    
    46   22   90 1    
    47   23   91 1    
    48   23   92 1    
    49   23   93 1    
    50   24   25 am   BACKBONE|DICT|INTERRES
    51   24   94 1    
    52   25   26 2    
    53   25   27 1    
    54   27   28 1    
    55   27   29 1    
    56   27   95 1    
    57   28   96 1    
    58   28   97 1    
    59   28   98 1    
    60   29   30 am   BACKBONE|DICT|INTERRES
    61   29   99 1    
    62   30   31 2    
    63   30   32 1    
    64   32   33 1    
    65   32   34 1    
    66   32  100 1    
    67   33  101 1    
    68   33  102 1    
    69   33  103 1    
    70   34   35 am   BACKBONE|DICT|INTERRES
    71   34  104 1    
    72   35   36 2    
    73   37   38 2    
    74   37   39 am   BACKBONE|DICT|INTERRES
    75   39   40 1    
    76   39  105 1    
    77   40   41 1    
    78   40   42 1    
    79   40  106 1    
    80   41  107 1    
    81   41  108 1    
    82   41  109 1    
    83   42   43 2    
    84   42   44 am   BACKBONE|DICT|INTERRES
    85   44   45 1    
    86   44  110 1    
    87   45   46 1    
    88   45   47 1    
    89   45  111 1    
    90   46  112 1    
    91   46  113 1    
    92   46  114 1    
    93   47   48 2    
    94   47   49 am   BACKBONE|DICT|INTERRES
    95   49   50 1    
    96   49  115 1    
    97   50   51 1    
    98   50   52 1    
    99   50  116 1    
   100   51  117 1    
   101   51  118 1    
   102   51  119 1    
   103   52   53 2    
   104   52   54 am   BACKBONE|DICT|INTERRES
   105   54   55 1    
   106   54  120 1    
   107   55   56 1    
   108   55   57 1    
   109   55  121 1    
   110   56  122 1    
   111   56  123 1    
   112   56  124 1    
   113   57   58 2    
   114   57   59 am   BACKBONE|DICT|INTERRES
   115   59   60 1    
   116   59  125 1    
   117   60   61 1    
   118   60   62 1    
   119   60  126 1    
   120   61  127 1    
   121   61  128 1    
   122   61  129 1    
   123   62   63 2    
   124   62   64 am   BACKBONE|DICT|INTERRES
   125   64   65 1    
   126   64  130 1    
   127   65   66 1    
   128   65   69 1    
   129   65  131 1    
   130   66   67 am   BACKBONE|DICT|INTERRES
   131   66   68 2    
   132   67  132 1    
   133   67  133 1    
   134   69   70 1    
   135   69  134 1    
   136   69  135 1    
   137   70   71 1    
   138   71  136 1    
   139   71  137 1    
@<TRIPOS>SUBSTRUCTURE
     1 UNK         1 GROUP             0       ****    0 ROOT    
