@<TRIPOS>MOLECULE
3R136
137   139    1
SMALL
USER_CHARGES


@<TRIPOS>ATOM
      1 CA         27.6914   18.3929    2.6230 C.3       0 UNK        -0.1979 
      2 C          27.6800   19.8931    2.8775 C.2       0 UNK         0.4864 
      3 O          27.2156   20.3270    3.9323 O.2       0 UNK        -0.5359 
      4 N          28.1846   20.6819    1.9162 N.am      1 UNK        -0.4318 
      5 CA         28.2725   22.1497    1.9515 C.3       1 UNK         0.0824 
      6 C6         29.2200   22.6686    3.0729 C.3       12 UNK        -0.0944 
      7 S7         30.0982   24.2002    2.6068 S.3       12 UNK        -0.2672 
      8 C8         31.7289   23.5264    2.1659 C.3       12 UNK         0.0333 
      9 C9         32.6880   24.6183    1.7169 C.ar      12 UNK        -0.0807 
     10 C10        33.7670   24.9918    2.5245 C.ar      12 UNK        -0.0894 
     11 C11        34.6763   25.9622    2.0906 C.ar      12 UNK        -0.0804 
     12 C12        34.4912   26.5694    0.8439 C.ar      12 UNK        -0.0824 
     13 C13        33.3991   26.2250    0.0413 C.ar      12 UNK        -0.0762 
     14 C14        32.5089   25.2392    0.4780 C.ar      12 UNK        -0.0782 
     15 C15        33.1664   26.9246   -1.2918 C.3       12 UNK         0.0230 
     16 S16        32.7642   28.6963   -1.1072 S.3       12 UNK        -0.2608 
     17 C17        31.3515   28.6778    0.0497 C.3       12 UNK        -0.0989 
     18 CA         29.9721   28.4907   -0.6448 C.3       5 UNK         0.0716 
     19 N          29.0421   27.7079    0.1821 N.am      5 UNK        -0.4135 
     20 C          28.5179   28.0913    1.3565 C.2       4 UNK         0.5031 
     21 O          28.8290   29.1389    1.9254 O.2       4 UNK        -0.5229 
     22 CA         27.4439   27.1808    1.9860 C.3       4 UNK         0.0329 
     23 CB         26.4892   27.9591    2.9150 C.3       4 UNK        -0.2001 
     24 N          26.6697   26.3922    1.0170 N.am      4 UNK        -0.4303 
     25 C          25.9807   26.8441   -0.0447 C.2       3 UNK         0.5044 
     26 O          25.9426   28.0311   -0.3726 O.2       3 UNK        -0.5152 
     27 CA         25.2652   25.8081   -0.9333 C.3       3 UNK         0.0319 
     28 CB         25.9599   25.7139   -2.3023 C.3       3 UNK        -0.2001 
     29 N          25.2095   24.4695   -0.3394 N.am      3 UNK        -0.4354 
     30 C          24.3219   24.0828    0.5877 C.2       2 UNK         0.4964 
     31 O          23.4001   24.7918    0.9923 O.2       2 UNK        -0.5047 
     32 CA         24.5091   22.6748    1.1843 C.3       2 UNK         0.0288 
     33 CB         23.6811   21.6430    0.4011 C.3       2 UNK        -0.2113 
     34 N          25.9061   22.2236    1.2534 N.am      2 UNK        -0.4145 
     35 C          26.8806   22.8293    1.9519 C.2       1 UNK         0.5006 
     36 O          26.7078   23.8866    2.5598 O.2       1 UNK        -0.5103 
     37 C          29.3433   29.8209   -1.1385 C.2       5 UNK         0.5055 
     38 O          30.0546   30.8134   -1.2926 O.2       5 UNK        -0.5220 
     39 N          28.0151   29.8231   -1.3498 N.am      6 UNK        -0.4450 
     40 CA         27.1589   30.9905   -1.5981 C.3       6 UNK         0.0367 
     41 CB         27.5331   31.7148   -2.9097 C.3       6 UNK        -0.1929 
     42 C          27.1067   31.9200   -0.3689 C.2       6 UNK         0.5070 
     43 O          27.2457   33.1366   -0.5032 O.2       6 UNK        -0.5237 
     44 N          26.9073   31.3043    0.8073 N.am      7 UNK        -0.4739 
     45 CA         26.8720   31.9046    2.1475 C.3       7 UNK         0.0276 
     46 CB         25.6476   32.8319    2.3024 C.3       7 UNK        -0.1927 
     47 C          28.2031   32.5827    2.5288 C.2       7 UNK         0.5013 
     48 O          28.2080   33.7390    2.9573 O.2       7 UNK        -0.5193 
     49 N          29.3081   31.8454    2.3602 N.am      8 UNK        -0.4253 
     50 CA         30.6724   32.3095    2.6247 C.3       8 UNK         0.0242 
     51 CB         31.2889   32.8599    1.3259 C.3       8 UNK        -0.2000 
     52 C          31.5783   31.2430    3.2657 C.2       8 UNK         0.4948 
     53 O          32.7478   31.5451    3.5102 O.2       8 UNK        -0.5275 
     54 N          31.0663   30.0344    3.5525 N.am      9 UNK        -0.4246 
     55 CA         31.8054   28.9002    4.1320 C.3       9 UNK         0.0261 
     56 CB         31.0056   27.5997    3.9230 C.3       9 UNK        -0.1959 
     57 C          32.2337   29.0795    5.6076 C.2       9 UNK         0.5033 
     58 O          32.0917   28.1526    6.4078 O.2       9 UNK        -0.5390 
     59 N          32.8097   30.2405    5.9464 N.am      10 UNK        -0.4215 
     60 CA         33.4566   30.5245    7.2356 C.3       10 UNK         0.0240 
     61 CB         33.8142   32.0176    7.3048 C.3       10 UNK        -0.1982 
     62 C          34.7050   29.6524    7.4775 C.2       10 UNK         0.4970 
     63 O          35.0656   29.4005    8.6273 O.2       10 UNK        -0.4916 
     64 N          35.3078   29.1850    6.3793 N.am      11 UNK        -0.4279 
     65 CA         36.3259   28.1326    6.3025 C.3       11 UNK         0.1003 
     66 C          35.8500   26.7150    6.7443 C.2       11 UNK         0.5709 
     67 N          34.5578   26.4535    6.9127 N.am      11 UNK        -0.7358 
     68 O          36.6800   25.8319    6.9458 O.2       11 UNK        -0.4999 
     69 C69        36.9661   28.1072    4.8860 C.3       12 UNK        -0.0954 
     70 S70        35.7295   28.0666    3.5369 S.3       12 UNK        -0.2268 
     71 C71        35.8616   26.3468    2.9651 C.3       12 UNK         0.0203 
     72 H72        26.6748   18.0012    2.6442 H         1 UNK         0.0888 
     73 H73        28.1302   18.1451    1.6566 H         1 UNK         0.0888 
     74 H74        28.2681   17.8861    3.3963 H         1 UNK         0.0888 
     75 H75        28.5518   20.2506    1.0784 H         1 UNK         0.3017 
     76 H76        28.7184   22.4166    0.9920 H         1 UNK         0.0873 
     77 H77        28.6783   22.8370    4.0058 H         1 UNK         0.0745 
     78 H78        29.9668   21.9106    3.3140 H         1 UNK         0.0745 
     79 H79        31.6132   22.7941    1.3654 H         1 UNK         0.0705 
     80 H80        32.1381   22.9879    3.0222 H         1 UNK         0.0705 
     81 H81        33.9060   24.5178    3.4867 H         1 UNK         0.1334 
     82 H82        35.1841   27.3294    0.5088 H         1 UNK         0.1417 
     83 H83        31.6665   24.9586   -0.1396 H         1 UNK         0.1562 
     84 H84        32.3632   26.4397   -1.8489 H         1 UNK         0.0748 
     85 H85        34.0626   26.8294   -1.9063 H         1 UNK         0.0748 
     86 H86        31.3736   29.5930    0.6425 H         1 UNK         0.0940 
     87 H87        31.5206   27.8849    0.7745 H         1 UNK         0.0940 
     88 H88        30.1223   27.8878   -1.5415 H         1 UNK         0.0703 
     89 H89        28.7369   26.8277   -0.2065 H         1 UNK         0.3081 
     90 H90        27.9875   26.4623    2.6008 H         1 UNK         0.0719 
     91 H91        25.7793   27.2875    3.3980 H         1 UNK         0.0809 
     92 H92        25.9181   28.7114    2.3707 H         1 UNK         0.0809 
     93 H93        27.0362   28.4699    3.7085 H         1 UNK         0.0809 
     94 H94        26.6158   25.4032    1.2378 H         1 UNK         0.2990 
     95 H95        24.2465   26.1679   -1.0932 H         1 UNK         0.0690 
     96 H96        25.4301   25.0327   -2.9687 H         1 UNK         0.0788 
     97 H97        26.9890   25.3635   -2.2131 H         1 UNK         0.0788 
     98 H98        25.9879   26.6865   -2.7962 H         1 UNK         0.0788 
     99 H99        25.9189   23.8113   -0.6276 H         1 UNK         0.2993 
    100 H100       24.1298   22.7102    2.2081 H         1 UNK         0.0949 
    101 H101       24.0351   21.5350   -0.6250 H         1 UNK         0.0767 
    102 H102       23.7176   20.6619    0.8753 H         1 UNK         0.0767 
    103 H103       22.6318   21.9385    0.3545 H         1 UNK         0.0767 
    104 H104       26.1251   21.3571    0.7835 H         1 UNK         0.3013 
    105 H105       27.4985   28.9700   -1.1565 H         1 UNK         0.3121 
    106 H106       26.1475   30.6002   -1.7231 H         1 UNK         0.0774 
    107 H107       26.7963   32.4819   -3.1505 H         1 UNK         0.0815 
    108 H108       28.5014   32.2111   -2.8430 H         1 UNK         0.0815 
    109 H109       27.5668   31.0221   -3.7503 H         1 UNK         0.0815 
    110 H110       26.8339   30.2960    0.7880 H         1 UNK         0.2987 
    111 H111       26.7460   31.0803    2.8510 H         1 UNK         0.0949 
    112 H112       25.7164   33.7080    1.6569 H         1 UNK         0.0806 
    113 H113       24.7217   32.3097    2.0621 H         1 UNK         0.0806 
    114 H114       25.5589   33.1918    3.3282 H         1 UNK         0.0806 
    115 H115       29.1976   30.8919    2.0173 H         1 UNK         0.3010 
    116 H116       30.6353   33.1250    3.3500 H         1 UNK         0.0829 
    117 H117       30.6631   33.6366    0.8859 H         1 UNK         0.0813 
    118 H118       32.2692   33.3008    1.5110 H         1 UNK         0.0813 
    119 H119       31.4212   32.0759    0.5809 H         1 UNK         0.0813 
    120 H120       30.1041   29.8428    3.2970 H         1 UNK         0.3038 
    121 H121       32.7312   28.7946    3.5628 H         1 UNK         0.0769 
    122 H122       30.0293   27.6420    4.4067 H         1 UNK         0.0811 
    123 H123       30.8526   27.3887    2.8679 H         1 UNK         0.0811 
    124 H124       31.5361   26.7364    4.3277 H         1 UNK         0.0811 
    125 H125       32.9071   30.9341    5.2054 H         1 UNK         0.3204 
    126 H126       32.7402   30.3014    8.0289 H         1 UNK         0.0748 
    127 H127       34.2786   32.2642    8.2608 H         1 UNK         0.0771 
    128 H128       34.5140   32.3022    6.5179 H         1 UNK         0.0771 
    129 H129       32.9263   32.6426    7.2061 H         1 UNK         0.0771 
    130 H130       34.9336   29.4645    5.4848 H         1 UNK         0.2980 
    131 H131       37.1107   28.4071    7.0095 H         1 UNK         0.0545 
    132 H132       33.8464   27.1569    6.7517 H         1 UNK         0.3459 
    133 H133       34.2839   25.5297    7.2052 H         1 UNK         0.3459 
    134 H134       37.5608   29.0114    4.7481 H         1 UNK         0.0616 
    135 H135       37.6702   27.2798    4.7790 H         1 UNK         0.0616 
    136 H136       35.9289   25.6839    3.8291 H         1 UNK         0.0634 
    137 H137       36.7884   26.2233    2.4031 H         1 UNK         0.0634 
@<TRIPOS>BOND
     1    1    2 1    
     2    1   72 1    
     3    1   73 1    
     4    1   74 1    
     5    2    3 2    
     6    2    4 am   BACKBONE|DICT|INTERRES
     7    4    5 1    
     8    4   75 1    
     9    5    6 1    
    10    5   35 1    
    11    5   76 1    
    12    6    7 1    
    13    6   77 1    
    14    6   78 1    
    15    7    8 1    
    16    8    9 1    
    17    8   79 1    
    18    8   80 1    
    19    9   10 ar   
    20    9   14 ar   
    21   10   11 ar   
    22   10   81 1    
    23   11   12 ar   
    24   11   71 1    
    25   12   13 ar   
    26   12   82 1    
    27   13   14 ar   
    28   13   15 1    
    29   14   83 1    
    30   15   16 1    
    31   15   84 1    
    32   15   85 1    
    33   16   17 1    
    34   17   18 1    
    35   17   86 1    
    36   17   87 1    
    37   18   19 1    
    38   18   37 1    
    39   18   88 1    
    40   19   20 am   BACKBONE|DICT|INTERRES
    41   19   89 1    
    42   20   21 2    
    43   20   22 1    
    44   22   23 1    
    45   22   24 1    
    46   22   90 1    
    47   23   91 1    
    48   23   92 1    
    49   23   93 1    
    50   24   25 am   BACKBONE|DICT|INTERRES
    51   24   94 1    
    52   25   26 2    
    53   25   27 1    
    54   27   28 1    
    55   27   29 1    
    56   27   95 1    
    57   28   96 1    
    58   28   97 1    
    59   28   98 1    
    60   29   30 am   BACKBONE|DICT|INTERRES
    61   29   99 1    
    62   30   31 2    
    63   30   32 1    
    64   32   33 1    
    65   32   34 1    
    66   32  100 1    
    67   33  101 1    
    68   33  102 1    
    69   33  103 1    
    70   34   35 am   BACKBONE|DICT|INTERRES
    71   34  104 1    
    72   35   36 2    
    73   37   38 2    
    74   37   39 am   BACKBONE|DICT|INTERRES
    75   39   40 1    
    76   39  105 1    
    77   40   41 1    
    78   40   42 1    
    79   40  106 1    
    80   41  107 1    
    81   41  108 1    
    82   41  109 1    
    83   42   43 2    
    84   42   44 am   BACKBONE|DICT|INTERRES
    85   44   45 1    
    86   44  110 1    
    87   45   46 1    
    88   45   47 1    
    89   45  111 1    
    90   46  112 1    
    91   46  113 1    
    92   46  114 1    
    93   47   48 2    
    94   47   49 am   BACKBONE|DICT|INTERRES
    95   49   50 1    
    96   49  115 1    
    97   50   51 1    
    98   50   52 1    
    99   50  116 1    
   100   51  117 1    
   101   51  118 1    
   102   51  119 1    
   103   52   53 2    
   104   52   54 am   BACKBONE|DICT|INTERRES
   105   54   55 1    
   106   54  120 1    
   107   55   56 1    
   108   55   57 1    
   109   55  121 1    
   110   56  122 1    
   111   56  123 1    
   112   56  124 1    
   113   57   58 2    
   114   57   59 am   BACKBONE|DICT|INTERRES
   115   59   60 1    
   116   59  125 1    
   117   60   61 1    
   118   60   62 1    
   119   60  126 1    
   120   61  127 1    
   121   61  128 1    
   122   61  129 1    
   123   62   63 2    
   124   62   64 am   BACKBONE|DICT|INTERRES
   125   64   65 1    
   126   64  130 1    
   127   65   66 1    
   128   65   69 1    
   129   65  131 1    
   130   66   67 am   BACKBONE|DICT|INTERRES
   131   66   68 2    
   132   67  132 1    
   133   67  133 1    
   134   69   70 1    
   135   69  134 1    
   136   69  135 1    
   137   70   71 1    
   138   71  136 1    
   139   71  137 1    
@<TRIPOS>SUBSTRUCTURE
     1 UNK         1 GROUP             0       ****    0 ROOT    
