@<TRIPOS>MOLECULE
3R136
137   139    1
SMALL
USER_CHARGES


@<TRIPOS>ATOM
      1 CA         34.1159   25.9377   -1.2112 C.3       0 UNK        -0.1979 
      2 C          32.6275   26.1775   -1.4203 C.2       0 UNK         0.4864 
      3 O          32.2455   26.8543   -2.3759 O.2       0 UNK        -0.5359 
      4 N          31.7892   25.6431   -0.5234 N.am      1 UNK        -0.4318 
      5 CA         30.3282   25.7453   -0.5725 C.3       1 UNK         0.0824 
      6 C6         29.6842   25.2423    0.7398 C.3       12 UNK        -0.0944 
      7 S7         29.9266   26.4060    2.1153 S.3       12 UNK        -0.2672 
      8 C8         29.8234   25.2572    3.5232 C.3       12 UNK         0.0333 
      9 C9         29.3620   25.9900    4.7697 C.ar      12 UNK        -0.0807 
     10 C10        30.2461   26.8202    5.4583 C.ar      12 UNK        -0.0894 
     11 C11        29.8116   27.5650    6.5584 C.ar      12 UNK        -0.0804 
     12 C12        28.4820   27.4559    6.9796 C.ar      12 UNK        -0.0824 
     13 C13        27.5898   26.6058    6.3149 C.ar      12 UNK        -0.0762 
     14 C14        28.0450   25.8636    5.2184 C.ar      12 UNK        -0.0782 
     15 C15        26.1502   26.4858    6.8147 C.3       12 UNK         0.0230 
     16 S16        24.8991   26.3001    5.4946 S.3       12 UNK        -0.2608 
     17 C17        25.0793   27.8644    4.5714 C.3       12 UNK        -0.0989 
     18 CA         25.6886   27.6505    3.1606 C.3       5 UNK         0.0716 
     19 N          24.8603   26.7671    2.3313 N.am      5 UNK        -0.4135 
     20 C          25.2485   26.1581    1.2032 C.2       4 UNK         0.5031 
     21 O          26.3705   26.2818    0.7051 O.2       4 UNK        -0.5229 
     22 CA         24.1871   25.3010    0.4933 C.3       4 UNK         0.0329 
     23 CB         23.2512   26.1926   -0.3391 C.3       4 UNK        -0.2001 
     24 N          24.8038   24.3165   -0.3955 N.am      4 UNK        -0.4303 
     25 C          25.4431   23.2076   -0.0076 C.2       3 UNK         0.5044 
     26 O          25.4881   22.8177    1.1599 O.2       3 UNK        -0.5152 
     27 CA         26.1655   22.3948   -1.1008 C.3       3 UNK         0.0319 
     28 CB         25.1704   21.5602   -1.9313 C.3       3 UNK        -0.2001 
     29 N          27.0589   23.1922   -1.9568 N.am      3 UNK        -0.4354 
     30 C          26.7510   24.1603   -2.8335 C.2       2 UNK         0.4964 
     31 O          25.5982   24.5099   -3.0947 O.2       2 UNK        -0.5047 
     32 CA         27.9424   24.8989   -3.4711 C.3       2 UNK         0.0288 
     33 CB         27.5039   25.9686   -4.4897 C.3       2 UNK        -0.2113 
     34 N          28.7428   25.5413   -2.4271 N.am      2 UNK        -0.4145 
     35 C          29.7465   24.9570   -1.7608 C.2       1 UNK         0.5006 
     36 O          30.1529   23.8165   -1.9999 O.2       1 UNK        -0.5103 
     37 C          25.9655   28.9888    2.4442 C.2       5 UNK         0.5055 
     38 O          25.3354   30.0025    2.7505 O.2       5 UNK        -0.5220 
     39 N          26.8979   28.9536    1.4860 N.am      6 UNK        -0.4450 
     40 CA         27.3115   30.0792    0.6462 C.3       6 UNK         0.0367 
     41 CB         28.0663   29.5187   -0.5719 C.3       6 UNK        -0.1929 
     42 C          28.1752   31.1285    1.3722 C.2       6 UNK         0.5070 
     43 O          28.4123   32.1929    0.8005 O.2       6 UNK        -0.5237 
     44 N          28.6528   30.8057    2.5856 N.am      7 UNK        -0.4739 
     45 CA         29.6089   31.5742    3.3979 C.3       7 UNK         0.0276 
     46 CB         29.0094   32.9231    3.8494 C.3       7 UNK        -0.1927 
     47 C          30.9750   31.7151    2.6952 C.2       7 UNK         0.5013 
     48 O          31.5742   32.7929    2.6927 O.2       7 UNK        -0.5193 
     49 N          31.4118   30.6112    2.0767 N.am      8 UNK        -0.4253 
     50 CA         32.6561   30.4827    1.3225 C.3       8 UNK         0.0242 
     51 CB         32.5008   29.2817    0.3698 C.3       8 UNK        -0.2000 
     52 C          33.8776   30.3081    2.2433 C.2       8 UNK         0.4948 
     53 O          33.7404   30.2491    3.4675 O.2       8 UNK        -0.5275 
     54 N          35.0590   30.1486    1.6264 N.am      9 UNK        -0.4246 
     55 CA         36.3472   29.8711    2.2824 C.3       9 UNK         0.0261 
     56 CB         37.4445   29.7638    1.2110 C.3       9 UNK        -0.1959 
     57 C          36.3608   28.6227    3.1897 C.2       9 UNK         0.5033 
     58 O          37.2131   28.5308    4.0743 O.2       9 UNK        -0.5390 
     59 N          35.3882   27.7192    2.9966 N.am      10 UNK        -0.4215 
     60 CA         35.0644   26.5860    3.8663 C.3       10 UNK         0.0240 
     61 CB         33.8603   25.8339    3.2728 C.3       10 UNK        -0.1982 
     62 C          34.7826   26.9714    5.3334 C.2       10 UNK         0.4970 
     63 O          35.0005   26.1365    6.2122 O.2       10 UNK        -0.4916 
     64 N          34.3321   28.2111    5.5819 N.am      11 UNK        -0.4279 
     65 CA         34.1803   28.7758    6.9330 C.3       11 UNK         0.1003 
     66 C          35.5227   29.1566    7.6261 C.2       11 UNK         0.5709 
     67 N          36.6657   29.1380    6.9485 N.am      11 UNK        -0.7358 
     68 O          35.5283   29.4674    8.8151 O.2       11 UNK        -0.4999 
     69 C69        33.1785   29.9648    6.9810 C.3       12 UNK        -0.0954 
     70 S70        31.5874   29.6455    6.1515 S.3       12 UNK        -0.2268 
     71 C71        30.7897   28.4713    7.2924 C.3       12 UNK         0.0203 
     72 H72        34.5409   25.4413   -2.0832 H         1 UNK         0.0888 
     73 H73        34.6336   26.8864   -1.0732 H         1 UNK         0.0888 
     74 H74        34.3110   25.3142   -0.3390 H         1 UNK         0.0888 
     75 H75        32.1576   25.0809    0.2293 H         1 UNK         0.3017 
     76 H76        30.0749   26.7988   -0.7085 H         1 UNK         0.0873 
     77 H77        28.6087   25.1009    0.6273 H         1 UNK         0.0745 
     78 H78        30.0854   24.2630    1.0087 H         1 UNK         0.0745 
     79 H79        29.1321   24.4458    3.2889 H         1 UNK         0.0705 
     80 H80        30.7984   24.7981    3.6929 H         1 UNK         0.0705 
     81 H81        31.2691   26.9103    5.1186 H         1 UNK         0.1334 
     82 H82        28.1436   28.0272    7.8334 H         1 UNK         0.1417 
     83 H83        27.3664   25.2037    4.6953 H         1 UNK         0.1562 
     84 H84        25.8829   27.3534    7.4202 H         1 UNK         0.0748 
     85 H85        26.0871   25.6200    7.4750 H         1 UNK         0.0748 
     86 H86        25.6957   28.5531    5.1529 H         1 UNK         0.0940 
     87 H87        24.0954   28.3322    4.4993 H         1 UNK         0.0940 
     88 H88        26.6568   27.1646    3.2887 H         1 UNK         0.0703 
     89 H89        23.9161   26.6239    2.6582 H         1 UNK         0.3081 
     90 H90        23.6007   24.7713    1.2471 H         1 UNK         0.0719 
     91 H91        23.7980   26.7429   -1.1065 H         1 UNK         0.0809 
     92 H92        22.4808   25.6027   -0.8363 H         1 UNK         0.0809 
     93 H93        22.7414   26.9257    0.2873 H         1 UNK         0.0809 
     94 H94        24.8756   24.5642   -1.3790 H         1 UNK         0.2990 
     95 H95        26.8183   21.6915   -0.5809 H         1 UNK         0.0690 
     96 H96        25.6889   20.9301   -2.6539 H         1 UNK         0.0788 
     97 H97        24.4638   22.1850   -2.4780 H         1 UNK         0.0788 
     98 H98        24.5862   20.9014   -1.2875 H         1 UNK         0.0788 
     99 H99        28.0470   23.0216   -1.8103 H         1 UNK         0.2993 
    100 H100       28.5449   24.1579   -4.0017 H         1 UNK         0.0949 
    101 H101       26.8905   26.7431   -4.0271 H         1 UNK         0.0767 
    102 H102       28.3656   26.4537   -4.9489 H         1 UNK         0.0767 
    103 H103       26.9170   25.5237   -5.2945 H         1 UNK         0.0767 
    104 H104       28.4317   26.4559   -2.1328 H         1 UNK         0.3013 
    105 H105       27.2687   28.0402    1.2420 H         1 UNK         0.3121 
    106 H106       26.4128   30.5880    0.2913 H         1 UNK         0.0774 
    107 H107       28.9804   29.0039   -0.2744 H         1 UNK         0.0815 
    108 H108       28.3512   30.3174   -1.2582 H         1 UNK         0.0815 
    109 H109       27.4491   28.8166   -1.1327 H         1 UNK         0.0815 
    110 H110       28.3906   29.9028    2.9548 H         1 UNK         0.2987 
    111 H111       29.7883   30.9839    4.2965 H         1 UNK         0.0949 
    112 H112       28.0482   32.7840    4.3440 H         1 UNK         0.0806 
    113 H113       29.6700   33.4222    4.5594 H         1 UNK         0.0806 
    114 H114       28.8613   33.6051    3.0118 H         1 UNK         0.0806 
    115 H115       30.8596   29.7722    2.1716 H         1 UNK         0.3010 
    116 H116       32.8036   31.3897    0.7324 H         1 UNK         0.0829 
    117 H117       33.3570   29.1792   -0.2973 H         1 UNK         0.0813 
    118 H118       32.3943   28.3437    0.9169 H         1 UNK         0.0813 
    119 H119       31.6227   29.3929   -0.2670 H         1 UNK         0.0813 
    120 H120       35.0839   30.2176    0.6189 H         1 UNK         0.3038 
    121 H121       36.5735   30.7274    2.9210 H         1 UNK         0.0769 
    122 H122       37.2548   28.9421    0.5191 H         1 UNK         0.0811 
    123 H123       38.4198   29.5865    1.6669 H         1 UNK         0.0811 
    124 H124       37.5253   30.6826    0.6299 H         1 UNK         0.0811 
    125 H125       34.7437   27.8987    2.2425 H         1 UNK         0.3204 
    126 H126       35.9273   25.9173    3.8662 H         1 UNK         0.0748 
    127 H127       33.5901   24.9769    3.8915 H         1 UNK         0.0771 
    128 H128       32.9797   26.4741    3.2013 H         1 UNK         0.0771 
    129 H129       34.0815   25.4528    2.2760 H         1 UNK         0.0771 
    130 H130       34.1552   28.8518    4.8132 H         1 UNK         0.2980 
    131 H131       33.7655   27.9849    7.5584 H         1 UNK         0.0545 
    132 H132       36.6969   28.8796    5.9679 H         1 UNK         0.3459 
    133 H133       37.5186   29.3840    7.4245 H         1 UNK         0.3459 
    134 H134       33.6188   30.8408    6.5011 H         1 UNK         0.0616 
    135 H135       32.9723   30.2533    8.0133 H         1 UNK         0.0616 
    136 H136       31.5346   27.8421    7.7778 H         1 UNK         0.0634 
    137 H137       30.2922   29.0334    8.0840 H         1 UNK         0.0634 
@<TRIPOS>BOND
     1    1    2 1    
     2    1   72 1    
     3    1   73 1    
     4    1   74 1    
     5    2    3 2    
     6    2    4 am   BACKBONE|DICT|INTERRES
     7    4    5 1    
     8    4   75 1    
     9    5    6 1    
    10    5   35 1    
    11    5   76 1    
    12    6    7 1    
    13    6   77 1    
    14    6   78 1    
    15    7    8 1    
    16    8    9 1    
    17    8   79 1    
    18    8   80 1    
    19    9   10 ar   
    20    9   14 ar   
    21   10   11 ar   
    22   10   81 1    
    23   11   12 ar   
    24   11   71 1    
    25   12   13 ar   
    26   12   82 1    
    27   13   14 ar   
    28   13   15 1    
    29   14   83 1    
    30   15   16 1    
    31   15   84 1    
    32   15   85 1    
    33   16   17 1    
    34   17   18 1    
    35   17   86 1    
    36   17   87 1    
    37   18   19 1    
    38   18   37 1    
    39   18   88 1    
    40   19   20 am   BACKBONE|DICT|INTERRES
    41   19   89 1    
    42   20   21 2    
    43   20   22 1    
    44   22   23 1    
    45   22   24 1    
    46   22   90 1    
    47   23   91 1    
    48   23   92 1    
    49   23   93 1    
    50   24   25 am   BACKBONE|DICT|INTERRES
    51   24   94 1    
    52   25   26 2    
    53   25   27 1    
    54   27   28 1    
    55   27   29 1    
    56   27   95 1    
    57   28   96 1    
    58   28   97 1    
    59   28   98 1    
    60   29   30 am   BACKBONE|DICT|INTERRES
    61   29   99 1    
    62   30   31 2    
    63   30   32 1    
    64   32   33 1    
    65   32   34 1    
    66   32  100 1    
    67   33  101 1    
    68   33  102 1    
    69   33  103 1    
    70   34   35 am   BACKBONE|DICT|INTERRES
    71   34  104 1    
    72   35   36 2    
    73   37   38 2    
    74   37   39 am   BACKBONE|DICT|INTERRES
    75   39   40 1    
    76   39  105 1    
    77   40   41 1    
    78   40   42 1    
    79   40  106 1    
    80   41  107 1    
    81   41  108 1    
    82   41  109 1    
    83   42   43 2    
    84   42   44 am   BACKBONE|DICT|INTERRES
    85   44   45 1    
    86   44  110 1    
    87   45   46 1    
    88   45   47 1    
    89   45  111 1    
    90   46  112 1    
    91   46  113 1    
    92   46  114 1    
    93   47   48 2    
    94   47   49 am   BACKBONE|DICT|INTERRES
    95   49   50 1    
    96   49  115 1    
    97   50   51 1    
    98   50   52 1    
    99   50  116 1    
   100   51  117 1    
   101   51  118 1    
   102   51  119 1    
   103   52   53 2    
   104   52   54 am   BACKBONE|DICT|INTERRES
   105   54   55 1    
   106   54  120 1    
   107   55   56 1    
   108   55   57 1    
   109   55  121 1    
   110   56  122 1    
   111   56  123 1    
   112   56  124 1    
   113   57   58 2    
   114   57   59 am   BACKBONE|DICT|INTERRES
   115   59   60 1    
   116   59  125 1    
   117   60   61 1    
   118   60   62 1    
   119   60  126 1    
   120   61  127 1    
   121   61  128 1    
   122   61  129 1    
   123   62   63 2    
   124   62   64 am   BACKBONE|DICT|INTERRES
   125   64   65 1    
   126   64  130 1    
   127   65   66 1    
   128   65   69 1    
   129   65  131 1    
   130   66   67 am   BACKBONE|DICT|INTERRES
   131   66   68 2    
   132   67  132 1    
   133   67  133 1    
   134   69   70 1    
   135   69  134 1    
   136   69  135 1    
   137   70   71 1    
   138   71  136 1    
   139   71  137 1    
@<TRIPOS>SUBSTRUCTURE
     1 UNK         1 GROUP             0       ****    0 ROOT    
