@<TRIPOS>MOLECULE
3R136
137   139    1
SMALL
USER_CHARGES


@<TRIPOS>ATOM
      1 CA         28.0308   21.6319   -2.7403 C.3       0 UNK        -0.1979 
      2 C          28.6553   22.3440   -1.5499 C.2       0 UNK         0.4864 
      3 O          28.1844   23.4135   -1.1624 O.2       0 UNK        -0.5359 
      4 N          29.7080   21.7581   -0.9652 N.am      1 UNK        -0.4318 
      5 CA         30.4481   22.2766    0.1914 C.3       1 UNK         0.0824 
      6 C6         31.8758   21.6766    0.2575 C.3       12 UNK        -0.0944 
      7 S7         32.9017   22.2572   -1.1356 S.3       12 UNK        -0.2672 
      8 C8         34.0011   23.4592   -0.3181 C.3       12 UNK         0.0333 
      9 C9         33.2347   24.6057    0.3297 C.ar      12 UNK        -0.0807 
     10 C10        33.0657   24.6420    1.7180 C.ar      12 UNK        -0.0894 
     11 C11        32.3797   25.6975    2.3252 C.ar      12 UNK        -0.0804 
     12 C12        31.8712   26.7287    1.5301 C.ar      12 UNK        -0.0824 
     13 C13        32.0208   26.6992    0.1405 C.ar      12 UNK        -0.0762 
     14 C14        32.7085   25.6372   -0.4550 C.ar      12 UNK        -0.0782 
     15 C15        31.4481   27.8246   -0.7100 C.3       12 UNK         0.0230 
     16 S16        29.9282   27.3374   -1.5933 S.3       12 UNK        -0.2608 
     17 C17        28.7893   26.8912   -0.2353 C.3       12 UNK        -0.0989 
     18 CA         27.6673   27.9316    0.0039 C.3       5 UNK         0.0716 
     19 N          26.5743   27.3471    0.7787 N.am      5 UNK        -0.4135 
     20 C          25.3138   27.8029    0.8200 C.2       4 UNK         0.5031 
     21 O          24.9140   28.7479    0.1373 O.2       4 UNK        -0.5229 
     22 CA         24.3228   27.0971    1.7697 C.3       4 UNK         0.0329 
     23 CB         23.4161   26.1394    0.9799 C.3       4 UNK        -0.2001 
     24 N          24.9721   26.3533    2.8526 N.am      4 UNK        -0.4303 
     25 C          25.6546   26.9073    3.8647 C.2       3 UNK         0.5044 
     26 O          25.6909   28.1200    4.0740 O.2       3 UNK        -0.5152 
     27 CA         26.4507   25.9625    4.7906 C.3       3 UNK         0.0319 
     28 CB         25.7311   25.8054    6.1402 C.3       3 UNK        -0.2001 
     29 N          26.7538   24.6250    4.2562 N.am      3 UNK        -0.4354 
     30 C          27.3918   24.3594    3.1074 C.2       2 UNK         0.4964 
     31 O          27.7000   25.2212    2.2818 O.2       2 UNK        -0.5047 
     32 CA         27.6985   22.8850    2.8158 C.3       2 UNK         0.0288 
     33 CB         26.4107   22.0942    2.5234 C.3       2 UNK        -0.2113 
     34 N          28.5688   22.8198    1.6472 N.am      2 UNK        -0.4145 
     35 C          29.6518   22.0549    1.4952 C.2       1 UNK         0.5006 
     36 O          30.0105   21.2025    2.3111 O.2       1 UNK        -0.5103 
     37 C          28.1655   29.2113    0.7055 C.2       5 UNK         0.5055 
     38 O          29.1468   29.1757    1.4475 O.2       5 UNK        -0.5220 
     39 N          27.4692   30.3279    0.4572 N.am      6 UNK        -0.4450 
     40 CA         27.7779   31.6570    0.9973 C.3       6 UNK         0.0367 
     41 CB         26.5502   32.5634    0.8057 C.3       6 UNK        -0.1929 
     42 C          29.0372   32.3097    0.3896 C.2       6 UNK         0.5070 
     43 O          29.4491   33.3714    0.8573 O.2       6 UNK        -0.5237 
     44 N          29.6222   31.6843   -0.6419 N.am      7 UNK        -0.4739 
     45 CA         30.8198   32.1384   -1.3540 C.3       7 UNK         0.0276 
     46 CB         30.9640   31.3203   -2.6484 C.3       7 UNK        -0.1927 
     47 C          32.1218   32.0829   -0.5295 C.2       7 UNK         0.5013 
     48 O          33.1133   32.6774   -0.9554 O.2       7 UNK        -0.5193 
     49 N          32.1132   31.3875    0.6146 N.am      8 UNK        -0.4253 
     50 CA         33.2203   31.3235    1.5643 C.3       8 UNK         0.0242 
     51 CB         33.9774   29.9958    1.3884 C.3       8 UNK        -0.2000 
     52 C          32.6545   31.4473    2.9821 C.2       8 UNK         0.4948 
     53 O          31.5539   30.9608    3.2439 O.2       8 UNK        -0.5275 
     54 N          33.4317   32.0650    3.8799 N.am      9 UNK        -0.4246 
     55 CA         33.0742   32.2787    5.2880 C.3       9 UNK         0.0261 
     56 CB         33.8199   33.5234    5.8013 C.3       9 UNK        -0.1959 
     57 C          33.3610   31.0634    6.1929 C.2       9 UNK         0.5033 
     58 O          33.0514   31.1168    7.3838 O.2       9 UNK        -0.5390 
     59 N          33.9645   30.0044    5.6348 N.am      10 UNK        -0.4215 
     60 CA         34.3919   28.7923    6.3401 C.3       10 UNK         0.0240 
     61 CB         35.3261   27.9875    5.4192 C.3       10 UNK        -0.1982 
     62 C          33.2479   27.9064    6.8734 C.2       10 UNK         0.4970 
     63 O          33.5131   27.0464    7.7145 O.2       10 UNK        -0.4916 
     64 N          32.0173   28.1126    6.3926 N.am      11 UNK        -0.4279 
     65 CA         30.8100   27.4012    6.8263 C.3       11 UNK         0.1003 
     66 C          29.5459   28.2883    6.6765 C.2       11 UNK         0.5709 
     67 N          28.4264   27.8742    7.2546 N.am      11 UNK        -0.7358 
     68 O          29.5702   29.3521    6.0602 O.2       11 UNK        -0.4999 
     69 C69        30.6766   25.9910    6.1807 C.3       12 UNK        -0.0954 
     70 S70        30.5006   25.9940    4.3635 S.3       12 UNK        -0.2268 
     71 C71        32.2255   25.7395    3.8400 C.3       12 UNK         0.0203 
     72 H72        28.0639   22.2744   -3.6197 H         1 UNK         0.0888 
     73 H73        28.5493   20.7034   -2.9787 H         1 UNK         0.0888 
     74 H74        26.9883   21.3947   -2.5299 H         1 UNK         0.0888 
     75 H75        30.0414   20.8758   -1.3261 H         1 UNK         0.3017 
     76 H76        30.5515   23.3587    0.0754 H         1 UNK         0.0873 
     77 H77        32.3691   21.9344    1.1957 H         1 UNK         0.0745 
     78 H78        31.8381   20.5860    0.2329 H         1 UNK         0.0745 
     79 H79        34.6948   23.8609   -1.0581 H         1 UNK         0.0705 
     80 H80        34.6141   22.9388    0.4196 H         1 UNK         0.0705 
     81 H81        33.4759   23.8489    2.3283 H         1 UNK         0.1334 
     82 H82        31.3435   27.5516    1.9952 H         1 UNK         0.1417 
     83 H83        32.8291   25.6107   -1.5296 H         1 UNK         0.1562 
     84 H84        32.1951   28.1367   -1.4412 H         1 UNK         0.0748 
     85 H85        31.2436   28.7033   -0.0983 H         1 UNK         0.0748 
     86 H86        29.3298   26.6760    0.6859 H         1 UNK         0.0940 
     87 H87        28.3385   25.9411   -0.5226 H         1 UNK         0.0940 
     88 H88        27.2684   28.2136   -0.9732 H         1 UNK         0.0703 
     89 H89        26.8435   26.5801    1.3919 H         1 UNK         0.3081 
     90 H90        23.6965   27.8705    2.2192 H         1 UNK         0.0719 
     91 H91        22.8915   26.6676    0.1823 H         1 UNK         0.0809 
     92 H92        22.6574   25.6903    1.6213 H         1 UNK         0.0809 
     93 H93        23.9863   25.3332    0.5162 H         1 UNK         0.0809 
     94 H94        24.9951   25.3481    2.7646 H         1 UNK         0.2990 
     95 H95        27.4105   26.4500    4.9715 H         1 UNK         0.0690 
     96 H96        26.3428   25.2558    6.8557 H         1 UNK         0.0788 
     97 H97        24.7823   25.2785    6.0314 H         1 UNK         0.0788 
     98 H98        25.5143   26.7778    6.5848 H         1 UNK         0.0788 
     99 H99        26.5137   23.8486    4.8560 H         1 UNK         0.2993 
    100 H100       28.2062   22.4649    3.6869 H         1 UNK         0.0949 
    101 H101       25.7380   22.0951    3.3818 H         1 UNK         0.0767 
    102 H102       25.8650   22.5129    1.6765 H         1 UNK         0.0767 
    103 H103       26.6339   21.0524    2.2919 H         1 UNK         0.0767 
    104 H104       28.3527   23.4891    0.9136 H         1 UNK         0.3013 
    105 H105       26.6313   30.2473   -0.1062 H         1 UNK         0.3121 
    106 H106       27.9611   31.5511    2.0689 H         1 UNK         0.0774 
    107 H107       26.7188   33.5493    1.2413 H         1 UNK         0.0815 
    108 H108       26.3175   32.7093   -0.2498 H         1 UNK         0.0815 
    109 H109       25.6680   32.1449    1.2907 H         1 UNK         0.0815 
    110 H110       29.2099   30.8193   -0.9586 H         1 UNK         0.2987 
    111 H111       30.6659   33.1846   -1.6276 H         1 UNK         0.0949 
    112 H112       30.0883   31.4305   -3.2882 H         1 UNK         0.0806 
    113 H113       31.8274   31.6514   -3.2274 H         1 UNK         0.0806 
    114 H114       31.0987   30.2582   -2.4433 H         1 UNK         0.0806 
    115 H115       31.2441   30.9825    0.9428 H         1 UNK         0.3010 
    116 H116       33.9082   32.1548    1.3936 H         1 UNK         0.0829 
    117 H117       34.3412   29.8790    0.3674 H         1 UNK         0.0813 
    118 H118       34.8442   29.9464    2.0483 H         1 UNK         0.0813 
    119 H119       33.3443   29.1388    1.6164 H         1 UNK         0.0813 
    120 H120       34.3273   32.4290    3.5843 H         1 UNK         0.3038 
    121 H121       32.0019   32.4773    5.3526 H         1 UNK         0.0769 
    122 H122       34.9016   33.3848    5.7795 H         1 UNK         0.0811 
    123 H123       33.5420   33.7505    6.8316 H         1 UNK         0.0811 
    124 H124       33.5808   34.4039    5.2045 H         1 UNK         0.0811 
    125 H125       34.1766   30.0532    4.6500 H         1 UNK         0.3204 
    126 H126       34.9702   29.1068    7.2115 H         1 UNK         0.0748 
    127 H127       35.6464   27.0592    5.8949 H         1 UNK         0.0771 
    128 H128       34.8437   27.7230    4.4782 H         1 UNK         0.0771 
    129 H129       36.2281   28.5522    5.1827 H         1 UNK         0.0771 
    130 H130       31.8494   28.8648    5.7377 H         1 UNK         0.2980 
    131 H131       30.9088   27.2540    7.9037 H         1 UNK         0.0545 
    132 H132       28.3961   27.0172    7.7830 H         1 UNK         0.3459 
    133 H133       27.6002   28.4449    7.1729 H         1 UNK         0.3459 
    134 H134       29.8114   25.4705    6.5940 H         1 UNK         0.0616 
    135 H135       31.5356   25.3765    6.4534 H         1 UNK         0.0616 
    136 H136       32.8395   26.5507    4.2256 H         1 UNK         0.0634 
    137 H137       32.5978   24.8191    4.2922 H         1 UNK         0.0634 
@<TRIPOS>BOND
     1    1    2 1    
     2    1   72 1    
     3    1   73 1    
     4    1   74 1    
     5    2    3 2    
     6    2    4 am   BACKBONE|DICT|INTERRES
     7    4    5 1    
     8    4   75 1    
     9    5    6 1    
    10    5   35 1    
    11    5   76 1    
    12    6    7 1    
    13    6   77 1    
    14    6   78 1    
    15    7    8 1    
    16    8    9 1    
    17    8   79 1    
    18    8   80 1    
    19    9   10 ar   
    20    9   14 ar   
    21   10   11 ar   
    22   10   81 1    
    23   11   12 ar   
    24   11   71 1    
    25   12   13 ar   
    26   12   82 1    
    27   13   14 ar   
    28   13   15 1    
    29   14   83 1    
    30   15   16 1    
    31   15   84 1    
    32   15   85 1    
    33   16   17 1    
    34   17   18 1    
    35   17   86 1    
    36   17   87 1    
    37   18   19 1    
    38   18   37 1    
    39   18   88 1    
    40   19   20 am   BACKBONE|DICT|INTERRES
    41   19   89 1    
    42   20   21 2    
    43   20   22 1    
    44   22   23 1    
    45   22   24 1    
    46   22   90 1    
    47   23   91 1    
    48   23   92 1    
    49   23   93 1    
    50   24   25 am   BACKBONE|DICT|INTERRES
    51   24   94 1    
    52   25   26 2    
    53   25   27 1    
    54   27   28 1    
    55   27   29 1    
    56   27   95 1    
    57   28   96 1    
    58   28   97 1    
    59   28   98 1    
    60   29   30 am   BACKBONE|DICT|INTERRES
    61   29   99 1    
    62   30   31 2    
    63   30   32 1    
    64   32   33 1    
    65   32   34 1    
    66   32  100 1    
    67   33  101 1    
    68   33  102 1    
    69   33  103 1    
    70   34   35 am   BACKBONE|DICT|INTERRES
    71   34  104 1    
    72   35   36 2    
    73   37   38 2    
    74   37   39 am   BACKBONE|DICT|INTERRES
    75   39   40 1    
    76   39  105 1    
    77   40   41 1    
    78   40   42 1    
    79   40  106 1    
    80   41  107 1    
    81   41  108 1    
    82   41  109 1    
    83   42   43 2    
    84   42   44 am   BACKBONE|DICT|INTERRES
    85   44   45 1    
    86   44  110 1    
    87   45   46 1    
    88   45   47 1    
    89   45  111 1    
    90   46  112 1    
    91   46  113 1    
    92   46  114 1    
    93   47   48 2    
    94   47   49 am   BACKBONE|DICT|INTERRES
    95   49   50 1    
    96   49  115 1    
    97   50   51 1    
    98   50   52 1    
    99   50  116 1    
   100   51  117 1    
   101   51  118 1    
   102   51  119 1    
   103   52   53 2    
   104   52   54 am   BACKBONE|DICT|INTERRES
   105   54   55 1    
   106   54  120 1    
   107   55   56 1    
   108   55   57 1    
   109   55  121 1    
   110   56  122 1    
   111   56  123 1    
   112   56  124 1    
   113   57   58 2    
   114   57   59 am   BACKBONE|DICT|INTERRES
   115   59   60 1    
   116   59  125 1    
   117   60   61 1    
   118   60   62 1    
   119   60  126 1    
   120   61  127 1    
   121   61  128 1    
   122   61  129 1    
   123   62   63 2    
   124   62   64 am   BACKBONE|DICT|INTERRES
   125   64   65 1    
   126   64  130 1    
   127   65   66 1    
   128   65   69 1    
   129   65  131 1    
   130   66   67 am   BACKBONE|DICT|INTERRES
   131   66   68 2    
   132   67  132 1    
   133   67  133 1    
   134   69   70 1    
   135   69  134 1    
   136   69  135 1    
   137   70   71 1    
   138   71  136 1    
   139   71  137 1    
@<TRIPOS>SUBSTRUCTURE
     1 UNK         1 GROUP             0       ****    0 ROOT    
