@<TRIPOS>MOLECULE
3R136
137   139    1
SMALL
USER_CHARGES


@<TRIPOS>ATOM
      1 CA         27.6517   21.9522    3.6511 C.3       0 UNK        -0.1979 
      2 C          28.0781   21.4407    2.2845 C.2       0 UNK         0.4864 
      3 O          27.2735   20.8241    1.5848 O.2       0 UNK        -0.5359 
      4 N          29.3405   21.6828    1.9041 N.am      1 UNK        -0.4318 
      5 CA         29.9446   21.2255    0.6419 C.3       1 UNK         0.0824 
      6 C6         31.4876   21.3743    0.6365 C.3       12 UNK        -0.0944 
      7 S7         32.2711   20.7135    2.1505 S.3       12 UNK        -0.2672 
      8 C8         33.6160   21.9060    2.4582 C.3       12 UNK         0.0333 
      9 C9         33.1241   23.3380    2.6366 C.ar      12 UNK        -0.0807 
     10 C10        33.4273   24.3037    1.6696 C.ar      12 UNK        -0.0894 
     11 C11        33.0091   25.6263    1.8334 C.ar      12 UNK        -0.0804 
     12 C12        32.2899   25.9819    2.9754 C.ar      12 UNK        -0.0824 
     13 C13        31.9573   25.0257    3.9364 C.ar      12 UNK        -0.0762 
     14 C14        32.3861   23.7042    3.7688 C.ar      12 UNK        -0.0782 
     15 C15        31.1355   25.4342    5.1496 C.3       12 UNK         0.0230 
     16 S16        29.3956   24.9176    5.0216 S.3       12 UNK        -0.2608 
     17 C17        28.8429   25.6476    3.4374 C.3       12 UNK        -0.0989 
     18 CA         28.8117   27.1971    3.3373 C.3       5 UNK         0.0716 
     19 N          28.4070   27.6151    1.9861 N.am      5 UNK        -0.4135 
     20 C          28.3534   28.8834    1.5443 C.2       4 UNK         0.5031 
     21 O          28.7364   29.8452    2.2079 O.2       4 UNK        -0.5229 
     22 CA         27.6928   29.1629    0.1782 C.3       4 UNK         0.0329 
     23 CB         28.7330   29.5780   -0.8707 C.3       4 UNK        -0.2001 
     24 N          26.8936   28.0584   -0.3534 N.am      4 UNK        -0.4303 
     25 C          25.7794   27.5640    0.2039 C.2       3 UNK         0.5044 
     26 O          25.2741   28.0092    1.2349 O.2       3 UNK        -0.5152 
     27 CA         25.1712   26.3175   -0.4682 C.3       3 UNK         0.0319 
     28 CB         24.0994   26.7279   -1.4901 C.3       3 UNK        -0.2001 
     29 N          26.1586   25.4404   -1.1182 N.am      3 UNK        -0.4354 
     30 C          27.2064   24.8828   -0.4954 C.2       2 UNK         0.4964 
     31 O          27.4804   25.0861    0.6908 O.2       2 UNK        -0.5047 
     32 CA         28.1309   23.9936   -1.3331 C.3       2 UNK         0.0288 
     33 CB         29.1129   24.8414   -2.1614 C.3       2 UNK        -0.2113 
     34 N          28.8712   23.1639   -0.3939 N.am      2 UNK        -0.4145 
     35 C          29.3383   21.9281   -0.5930 C.2       1 UNK         0.5006 
     36 O          29.2989   21.3426   -1.6767 O.2       1 UNK        -0.5103 
     37 C          27.9399   27.8447    4.4388 C.2       5 UNK         0.5055 
     38 O          28.4492   28.1384    5.5216 O.2       5 UNK        -0.5220 
     39 N          26.6586   28.1058    4.1322 N.am      6 UNK        -0.4450 
     40 CA         25.7380   28.8361    5.0051 C.3       6 UNK         0.0367 
     41 CB         24.2985   28.6269    4.5085 C.3       6 UNK        -0.1929 
     42 C          26.0569   30.3404    5.1101 C.2       6 UNK         0.5070 
     43 O          25.6371   30.9669    6.0837 O.2       6 UNK        -0.5237 
     44 N          26.7718   30.8988    4.1222 N.am      7 UNK        -0.4739 
     45 CA         27.2018   32.2959    4.1049 C.3       7 UNK         0.0276 
     46 CB         27.2347   32.8236    2.6598 C.3       7 UNK        -0.1927 
     47 C          28.5655   32.4625    4.7891 C.2       7 UNK         0.5013 
     48 O          28.6938   33.3356    5.6490 O.2       7 UNK        -0.5193 
     49 N          29.5525   31.6338    4.4173 N.am      8 UNK        -0.4253 
     50 CA         30.9067   31.6758    4.9692 C.3       8 UNK         0.0242 
     51 CB         31.6881   32.8623    4.3677 C.3       8 UNK        -0.2000 
     52 C          31.6486   30.3685    4.6803 C.2       8 UNK         0.4948 
     53 O          31.4448   29.7656    3.6265 O.2       8 UNK        -0.5275 
     54 N          32.5844   30.0100    5.5705 N.am      9 UNK        -0.4246 
     55 CA         33.4927   28.8634    5.4247 C.3       9 UNK         0.0261 
     56 CB         34.2732   28.6650    6.7340 C.3       9 UNK        -0.1959 
     57 C          34.4593   28.9667    4.2281 C.2       9 UNK         0.5033 
     58 O          34.9782   27.9444    3.7821 O.2       9 UNK        -0.5390 
     59 N          34.6761   30.1888    3.7261 N.am      10 UNK        -0.4215 
     60 CA         35.4399   30.4743    2.5122 C.3       10 UNK         0.0240 
     61 CB         36.0249   31.8933    2.6248 C.3       10 UNK        -0.1982 
     62 C          34.6096   30.3368    1.2202 C.2       10 UNK         0.4970 
     63 O          35.2011   30.3989    0.1420 O.2       10 UNK        -0.4916 
     64 N          33.2778   30.1889    1.3294 N.am      11 UNK        -0.4279 
     65 CA         32.3161   30.1728    0.2103 C.3       11 UNK         0.1003 
     66 C          32.2348   31.5122   -0.5895 C.2       11 UNK         0.5709 
     67 N          32.6734   32.6384   -0.0382 N.am      11 UNK        -0.7358 
     68 O          31.7347   31.5480   -1.7112 O.2       11 UNK        -0.4999 
     69 C69        32.4579   28.9127   -0.6996 C.3       12 UNK        -0.0954 
     70 S70        31.8174   27.4116    0.1077 S.3       12 UNK        -0.2268 
     71 C71        33.3365   26.6855    0.7934 C.3       12 UNK         0.0203 
     72 H72        27.0611   22.8616    3.5453 H         1 UNK         0.0888 
     73 H73        27.0426   21.2064    4.1611 H         1 UNK         0.0888 
     74 H74        28.5115   22.1689    4.2841 H         1 UNK         0.0888 
     75 H75        29.9680   22.1671    2.5308 H         1 UNK         0.3017 
     76 H76        29.7141   20.1623    0.5451 H         1 UNK         0.0873 
     77 H77        31.9139   20.8492   -0.2203 H         1 UNK         0.0745 
     78 H78        31.7612   22.4219    0.5097 H         1 UNK         0.0745 
     79 H79        34.1553   21.6012    3.3561 H         1 UNK         0.0705 
     80 H80        34.3335   21.8426    1.6385 H         1 UNK         0.0705 
     81 H81        33.9935   24.0266    0.7908 H         1 UNK         0.1334 
     82 H82        31.9798   27.0101    3.1004 H         1 UNK         0.1417 
     83 H83        32.1414   22.9605    4.5152 H         1 UNK         0.1562 
     84 H84        31.1604   26.5140    5.2951 H         1 UNK         0.0748 
     85 H85        31.5706   24.9963    6.0491 H         1 UNK         0.0748 
     86 H86        27.8428   25.2543    3.2496 H         1 UNK         0.0940 
     87 H87        29.4691   25.2402    2.6422 H         1 UNK         0.0940 
     88 H88        29.8237   27.5734    3.4846 H         1 UNK         0.0703 
     89 H89        28.0646   26.8739    1.3831 H         1 UNK         0.3081 
     90 H90        27.0164   30.0071    0.3286 H         1 UNK         0.0719 
     91 H91        29.4331   28.7712   -1.0857 H         1 UNK         0.0809 
     92 H92        28.2587   29.8686   -1.8082 H         1 UNK         0.0809 
     93 H93        29.3085   30.4375   -0.5272 H         1 UNK         0.0809 
     94 H94        27.2363   27.6151   -1.1930 H         1 UNK         0.2990 
     95 H95        24.6873   25.7342    0.3180 H         1 UNK         0.0690 
     96 H96        23.5839   25.8577   -1.8968 H         1 UNK         0.0788 
     97 H97        24.5277   27.2860   -2.3237 H         1 UNK         0.0788 
     98 H98        23.3421   27.3628   -1.0275 H         1 UNK         0.0788 
     99 H99        26.0080   25.2376   -2.0965 H         1 UNK         0.2993 
    100 H100       27.5247   23.3625   -1.9866 H         1 UNK         0.0949 
    101 H101       28.5840   25.4721   -2.8768 H         1 UNK         0.0767 
    102 H102       29.7141   25.4954   -1.5276 H         1 UNK         0.0767 
    103 H103       29.7962   24.2107   -2.7305 H         1 UNK         0.0767 
    104 H104       28.8877   23.5432    0.5450 H         1 UNK         0.3013 
    105 H105       26.3118   27.8659    3.2104 H         1 UNK         0.3121 
    106 H106       25.8157   28.4143    6.0096 H         1 UNK         0.0774 
    107 H107       23.5827   29.1119    5.1735 H         1 UNK         0.0815 
    108 H108       24.1510   29.0451    3.5120 H         1 UNK         0.0815 
    109 H109       24.0395   27.5687    4.4707 H         1 UNK         0.0815 
    110 H110       27.1522   30.3069    3.3930 H         1 UNK         0.2987 
    111 H111       26.4779   32.9018    4.6550 H         1 UNK         0.0949 
    112 H112       27.9731   32.3083    2.0459 H         1 UNK         0.0806 
    113 H113       26.2637   32.7155    2.1766 H         1 UNK         0.0806 
    114 H114       27.4880   33.8844    2.6431 H         1 UNK         0.0806 
    115 H115       29.3875   30.9242    3.7038 H         1 UNK         0.3010 
    116 H116       30.8368   31.7972    6.0526 H         1 UNK         0.0829 
    117 H117       31.7504   32.7899    3.2810 H         1 UNK         0.0813 
    118 H118       32.7069   32.9043    4.7544 H         1 UNK         0.0813 
    119 H119       31.2191   33.8160    4.6098 H         1 UNK         0.0813 
    120 H120       32.7017   30.5702    6.4035 H         1 UNK         0.3038 
    121 H121       32.8816   27.9771    5.2578 H         1 UNK         0.0769 
    122 H122       34.8936   29.5304    6.9705 H         1 UNK         0.0811 
    123 H123       33.6017   28.4905    7.5749 H         1 UNK         0.0811 
    124 H124       34.9341   27.7994    6.6664 H         1 UNK         0.0811 
    125 H125       34.2322   30.9727    4.1801 H         1 UNK         0.3204 
    126 H126       36.2710   29.7692    2.4395 H         1 UNK         0.0748 
    127 H127       36.6362   32.1360    1.7542 H         1 UNK         0.0771 
    128 H128       35.2432   32.6508    2.6950 H         1 UNK         0.0771 
    129 H129       36.6654   31.9893    3.5019 H         1 UNK         0.0771 
    130 H130       32.8528   30.1035    2.2467 H         1 UNK         0.2980 
    131 H131       31.3405   30.1125    0.6933 H         1 UNK         0.0545 
    132 H132       32.6047   33.4983   -0.5588 H         1 UNK         0.3459 
    133 H133       33.0763   32.6363    0.8835 H         1 UNK         0.3459 
    134 H134       33.4884   28.7580   -1.0203 H         1 UNK         0.0616 
    135 H135       31.8785   29.0212   -1.6172 H         1 UNK         0.0616 
    136 H136       33.9400   27.4604    1.2640 H         1 UNK         0.0634 
    137 H137       33.9337   26.2716   -0.0203 H         1 UNK         0.0634 
@<TRIPOS>BOND
     1    1    2 1    
     2    1   72 1    
     3    1   73 1    
     4    1   74 1    
     5    2    3 2    
     6    2    4 am   BACKBONE|DICT|INTERRES
     7    4    5 1    
     8    4   75 1    
     9    5    6 1    
    10    5   35 1    
    11    5   76 1    
    12    6    7 1    
    13    6   77 1    
    14    6   78 1    
    15    7    8 1    
    16    8    9 1    
    17    8   79 1    
    18    8   80 1    
    19    9   10 ar   
    20    9   14 ar   
    21   10   11 ar   
    22   10   81 1    
    23   11   12 ar   
    24   11   71 1    
    25   12   13 ar   
    26   12   82 1    
    27   13   14 ar   
    28   13   15 1    
    29   14   83 1    
    30   15   16 1    
    31   15   84 1    
    32   15   85 1    
    33   16   17 1    
    34   17   18 1    
    35   17   86 1    
    36   17   87 1    
    37   18   19 1    
    38   18   37 1    
    39   18   88 1    
    40   19   20 am   BACKBONE|DICT|INTERRES
    41   19   89 1    
    42   20   21 2    
    43   20   22 1    
    44   22   23 1    
    45   22   24 1    
    46   22   90 1    
    47   23   91 1    
    48   23   92 1    
    49   23   93 1    
    50   24   25 am   BACKBONE|DICT|INTERRES
    51   24   94 1    
    52   25   26 2    
    53   25   27 1    
    54   27   28 1    
    55   27   29 1    
    56   27   95 1    
    57   28   96 1    
    58   28   97 1    
    59   28   98 1    
    60   29   30 am   BACKBONE|DICT|INTERRES
    61   29   99 1    
    62   30   31 2    
    63   30   32 1    
    64   32   33 1    
    65   32   34 1    
    66   32  100 1    
    67   33  101 1    
    68   33  102 1    
    69   33  103 1    
    70   34   35 am   BACKBONE|DICT|INTERRES
    71   34  104 1    
    72   35   36 2    
    73   37   38 2    
    74   37   39 am   BACKBONE|DICT|INTERRES
    75   39   40 1    
    76   39  105 1    
    77   40   41 1    
    78   40   42 1    
    79   40  106 1    
    80   41  107 1    
    81   41  108 1    
    82   41  109 1    
    83   42   43 2    
    84   42   44 am   BACKBONE|DICT|INTERRES
    85   44   45 1    
    86   44  110 1    
    87   45   46 1    
    88   45   47 1    
    89   45  111 1    
    90   46  112 1    
    91   46  113 1    
    92   46  114 1    
    93   47   48 2    
    94   47   49 am   BACKBONE|DICT|INTERRES
    95   49   50 1    
    96   49  115 1    
    97   50   51 1    
    98   50   52 1    
    99   50  116 1    
   100   51  117 1    
   101   51  118 1    
   102   51  119 1    
   103   52   53 2    
   104   52   54 am   BACKBONE|DICT|INTERRES
   105   54   55 1    
   106   54  120 1    
   107   55   56 1    
   108   55   57 1    
   109   55  121 1    
   110   56  122 1    
   111   56  123 1    
   112   56  124 1    
   113   57   58 2    
   114   57   59 am   BACKBONE|DICT|INTERRES
   115   59   60 1    
   116   59  125 1    
   117   60   61 1    
   118   60   62 1    
   119   60  126 1    
   120   61  127 1    
   121   61  128 1    
   122   61  129 1    
   123   62   63 2    
   124   62   64 am   BACKBONE|DICT|INTERRES
   125   64   65 1    
   126   64  130 1    
   127   65   66 1    
   128   65   69 1    
   129   65  131 1    
   130   66   67 am   BACKBONE|DICT|INTERRES
   131   66   68 2    
   132   67  132 1    
   133   67  133 1    
   134   69   70 1    
   135   69  134 1    
   136   69  135 1    
   137   70   71 1    
   138   71  136 1    
   139   71  137 1    
@<TRIPOS>SUBSTRUCTURE
     1 UNK         1 GROUP             0       ****    0 ROOT    
