@<TRIPOS>MOLECULE
3R136
137   139    1
SMALL
USER_CHARGES


@<TRIPOS>ATOM
      1 CA         30.5875   21.7503   -3.7062 C.3       0 UNK        -0.1979 
      2 C          29.7351   22.4913   -2.6875 C.2       0 UNK         0.4864 
      3 O          29.5669   22.0081   -1.5674 O.2       0 UNK        -0.5359 
      4 N          29.1820   23.6498   -3.0746 N.am      1 UNK        -0.4318 
      5 CA         28.3758   24.5957   -2.2790 C.3       1 UNK         0.0824 
      6 C6         29.1032   25.1578   -1.0301 C.3       12 UNK        -0.0944 
      7 S7         30.7247   25.9074   -1.4079 S.3       12 UNK        -0.2672 
      8 C8         31.8559   24.8402   -0.4576 C.3       12 UNK         0.0333 
      9 C9         31.6848   25.0344    1.0424 C.ar      12 UNK        -0.0807 
     10 C10        32.1832   26.1850    1.6578 C.ar      12 UNK        -0.0894 
     11 C11        32.0082   26.3924    3.0288 C.ar      12 UNK        -0.0804 
     12 C12        31.3479   25.4242    3.7915 C.ar      12 UNK        -0.0824 
     13 C13        30.8173   24.2819    3.1804 C.ar      12 UNK        -0.0762 
     14 C14        31.0068   24.0828    1.8098 C.ar      12 UNK        -0.0782 
     15 C15        29.9776   23.2959    3.9807 C.3       12 UNK         0.0230 
     16 S16        28.1910   23.6201    3.7692 S.3       12 UNK        -0.2608 
     17 C17        28.0090   25.2225    4.6211 C.3       12 UNK        -0.0989 
     18 CA         28.1275   26.4197    3.6390 C.3       5 UNK         0.0716 
     19 N          26.9285   26.5903    2.8070 N.am      5 UNK        -0.4135 
     20 C          26.8654   27.2451    1.6388 C.2       4 UNK         0.5031 
     21 O          27.8338   27.8286    1.1405 O.2       4 UNK        -0.5229 
     22 CA         25.5003   27.2814    0.9245 C.3       4 UNK         0.0329 
     23 CB         25.5851   27.9451   -0.4633 C.3       4 UNK        -0.2001 
     24 N          24.8852   25.9559    0.7886 N.am      4 UNK        -0.4303 
     25 C          24.2134   25.3193    1.7604 C.2       3 UNK         0.5044 
     26 O          24.1318   25.7502    2.9119 O.2       3 UNK        -0.5152 
     27 CA         23.5018   23.9986    1.4118 C.3       3 UNK         0.0319 
     28 CB         21.9987   24.2436    1.2021 C.3       3 UNK        -0.2001 
     29 N          24.0446   23.3341    0.2263 N.am      3 UNK        -0.4354 
     30 C          25.1890   22.6398    0.2056 C.2       2 UNK         0.4964 
     31 O          25.8910   22.4498    1.1983 O.2       2 UNK        -0.5047 
     32 CA         25.6469   22.0687   -1.1485 C.3       2 UNK         0.0288 
     33 CB         24.5505   22.0445   -2.2397 C.3       2 UNK        -0.2113 
     34 N          26.8437   22.7684   -1.6220 N.am      2 UNK        -0.4145 
     35 C          26.9744   24.0767   -1.8838 C.2       1 UNK         0.5006 
     36 O          26.0396   24.8777   -1.8179 O.2       1 UNK        -0.5103 
     37 C          28.5740   27.7278    4.3341 C.2       5 UNK         0.5055 
     38 O          28.7200   27.7802    5.5563 O.2       5 UNK        -0.5220 
     39 N          28.8096   28.7545    3.5179 N.am      6 UNK        -0.4450 
     40 CA         29.3657   30.0564    3.8682 C.3       6 UNK         0.0367 
     41 CB         28.2736   30.9600    4.4680 C.3       6 UNK        -0.1929 
     42 C          30.0410   30.7343    2.6636 C.2       6 UNK         0.5070 
     43 O          30.7436   31.7234    2.8743 O.2       6 UNK        -0.5237 
     44 N          29.8332   30.2152    1.4389 N.am      7 UNK        -0.4739 
     45 CA         30.2757   30.8080    0.1712 C.3       7 UNK         0.0276 
     46 CB         29.8134   29.9122   -0.9895 C.3       7 UNK        -0.1927 
     47 C          31.7859   31.0806    0.0737 C.2       7 UNK         0.5013 
     48 O          32.1770   32.1298   -0.4392 O.2       7 UNK        -0.5193 
     49 N          32.6082   30.1696    0.6109 N.am      8 UNK        -0.4253 
     50 CA         34.0657   30.3125    0.7018 C.3       8 UNK         0.0242 
     51 CB         34.7289   28.9226    0.6771 C.3       8 UNK        -0.2000 
     52 C          34.4854   31.1614    1.9207 C.2       8 UNK         0.4948 
     53 O          35.3101   30.7226    2.7230 O.2       8 UNK        -0.5275 
     54 N          33.9107   32.3683    2.0201 N.am      9 UNK        -0.4246 
     55 CA         34.1864   33.4210    3.0037 C.3       9 UNK         0.0261 
     56 CB         35.5933   34.0143    2.7705 C.3       9 UNK        -0.1959 
     57 C          33.9471   32.9985    4.4684 C.2       9 UNK         0.5033 
     58 O          34.8036   33.2482    5.3191 O.2       9 UNK        -0.5390 
     59 N          32.7696   32.4103    4.7346 N.am      10 UNK        -0.4215 
     60 CA         32.2325   32.0487    6.0549 C.3       10 UNK         0.0240 
     61 CB         31.8905   33.3195    6.8620 C.3       10 UNK        -0.1982 
     62 C          33.1355   31.0746    6.8377 C.2       10 UNK         0.4970 
     63 O          33.7762   31.4710    7.8137 O.2       10 UNK        -0.4916 
     64 N          33.1649   29.8163    6.3806 N.am      11 UNK        -0.4279 
     65 CA         33.9031   28.6910    6.9815 C.3       11 UNK         0.1003 
     66 C          33.5690   28.4565    8.4820 C.2       11 UNK         0.5709 
     67 N          34.5588   28.1072    9.2927 N.am      11 UNK        -0.7358 
     68 O          32.4164   28.5417    8.9025 O.2       11 UNK        -0.4999 
     69 C69        33.6846   27.3743    6.1873 C.3       12 UNK        -0.0954 
     70 S70        34.1191   27.5284    4.4235 S.3       12 UNK        -0.2268 
     71 C71        32.4749   27.6912    3.6663 C.3       12 UNK         0.0203 
     72 H72        30.1695   20.7624   -3.8979 H         1 UNK         0.0888 
     73 H73        30.6474   22.2839   -4.6546 H         1 UNK         0.0888 
     74 H74        31.6002   21.6240   -3.3242 H         1 UNK         0.0888 
     75 H75        29.3472   23.9551   -4.0238 H         1 UNK         0.3017 
     76 H76        28.1948   25.4389   -2.9478 H         1 UNK         0.0873 
     77 H77        28.4964   25.9338   -0.5632 H         1 UNK         0.0745 
     78 H78        29.2161   24.3786   -0.2766 H         1 UNK         0.0745 
     79 H79        31.6971   23.7976   -0.7363 H         1 UNK         0.0705 
     80 H80        32.8830   25.0781   -0.7376 H         1 UNK         0.0705 
     81 H81        32.6843   26.9280    1.0554 H         1 UNK         0.1334 
     82 H82        31.1960   25.5885    4.8494 H         1 UNK         0.1417 
     83 H83        30.5927   23.2031    1.3347 H         1 UNK         0.1562 
     84 H84        30.2384   23.3331    5.0395 H         1 UNK         0.0748 
     85 H85        30.1932   22.2787    3.6501 H         1 UNK         0.0748 
     86 H86        28.7665   25.2621    5.4058 H         1 UNK         0.0940 
     87 H87        27.0493   25.2458    5.1400 H         1 UNK         0.0940 
     88 H88        28.9323   26.1942    2.9396 H         1 UNK         0.0703 
     89 H89        26.0709   26.1701    3.1502 H         1 UNK         0.3081 
     90 H90        24.8447   27.9028    1.5381 H         1 UNK         0.0719 
     91 H91        26.2809   27.4223   -1.1201 H         1 UNK         0.0809 
     92 H92        24.6125   27.9696   -0.9547 H         1 UNK         0.0809 
     93 H93        25.9317   28.9762   -0.3823 H         1 UNK         0.0809 
     94 H94        24.9852   25.5071   -0.1161 H         1 UNK         0.2990 
     95 H95        23.6190   23.3303    2.2678 H         1 UNK         0.0690 
     96 H96        21.4645   23.3093    1.0282 H         1 UNK         0.0788 
     97 H97        21.8106   24.9024    0.3532 H         1 UNK         0.0788 
     98 H98        21.5527   24.7104    2.0816 H         1 UNK         0.0788 
     99 H99        23.5418   23.4564   -0.6411 H         1 UNK         0.2993 
    100 H100       25.9452   21.0366   -0.9575 H         1 UNK         0.0949 
    101 H101       24.2224   23.0431   -2.5295 H         1 UNK         0.0767 
    102 H102       24.9128   21.5481   -3.1401 H         1 UNK         0.0767 
    103 H103       23.6733   21.4901   -1.9031 H         1 UNK         0.0767 
    104 H104       27.7074   22.2299   -1.6159 H         1 UNK         0.3013 
    105 H105       28.5910   28.5862    2.5385 H         1 UNK         0.3121 
    106 H106       30.1414   29.9018    4.6192 H         1 UNK         0.0774 
    107 H107       27.4556   31.1200    3.7648 H         1 UNK         0.0815 
    108 H108       28.6753   31.9394    4.7320 H         1 UNK         0.0815 
    109 H109       27.8547   30.5291    5.3773 H         1 UNK         0.0815 
    110 H110       29.2411   29.4022    1.3320 H         1 UNK         0.2987 
    111 H111       29.7715   31.7722    0.0769 H         1 UNK         0.0949 
    112 H112       30.2452   28.9128   -0.9239 H         1 UNK         0.0806 
    113 H113       28.7285   29.8041   -1.0013 H         1 UNK         0.0806 
    114 H114       30.1070   30.3330   -1.9522 H         1 UNK         0.0806 
    115 H115       32.1946   29.3563    1.0397 H         1 UNK         0.3010 
    116 H116       34.4190   30.8453   -0.1839 H         1 UNK         0.0829 
    117 H117       35.8144   29.0150    0.6223 H         1 UNK         0.0813 
    118 H118       34.5051   28.3451    1.5723 H         1 UNK         0.0813 
    119 H119       34.4121   28.3436   -0.1905 H         1 UNK         0.0813 
    120 H120       33.2254   32.6011    1.3086 H         1 UNK         0.3038 
    121 H121       33.4644   34.2142    2.8034 H         1 UNK         0.0769 
    122 H122       36.3782   33.2867    2.9799 H         1 UNK         0.0811 
    123 H123       35.7676   34.8756    3.4166 H         1 UNK         0.0811 
    124 H124       35.7160   34.3536    1.7420 H         1 UNK         0.0811 
    125 H125       32.1386   32.2371    3.9518 H         1 UNK         0.3204 
    126 H126       31.2913   31.5292    5.8753 H         1 UNK         0.0748 
    127 H127       31.4336   33.0622    7.8184 H         1 UNK         0.0771 
    128 H128       32.7765   33.9183    7.0766 H         1 UNK         0.0771 
    129 H129       31.1827   33.9506    6.3244 H         1 UNK         0.0771 
    130 H130       32.6318   29.5903    5.5577 H         1 UNK         0.2980 
    131 H131       34.9607   28.9534    6.9139 H         1 UNK         0.0545 
    132 H132       35.5048   28.0203    8.9549 H         1 UNK         0.3459 
    133 H133       34.3569   27.9348   10.2652 H         1 UNK         0.3459 
    134 H134       32.6549   27.0261    6.2864 H         1 UNK         0.0616 
    135 H135       34.3079   26.5797    6.6017 H         1 UNK         0.0616 
    136 H136       31.7443   28.0227    4.4041 H         1 UNK         0.0634 
    137 H137       32.5149   28.4834    2.9197 H         1 UNK         0.0634 
@<TRIPOS>BOND
     1    1    2 1    
     2    1   72 1    
     3    1   73 1    
     4    1   74 1    
     5    2    3 2    
     6    2    4 am   BACKBONE|DICT|INTERRES
     7    4    5 1    
     8    4   75 1    
     9    5    6 1    
    10    5   35 1    
    11    5   76 1    
    12    6    7 1    
    13    6   77 1    
    14    6   78 1    
    15    7    8 1    
    16    8    9 1    
    17    8   79 1    
    18    8   80 1    
    19    9   10 ar   
    20    9   14 ar   
    21   10   11 ar   
    22   10   81 1    
    23   11   12 ar   
    24   11   71 1    
    25   12   13 ar   
    26   12   82 1    
    27   13   14 ar   
    28   13   15 1    
    29   14   83 1    
    30   15   16 1    
    31   15   84 1    
    32   15   85 1    
    33   16   17 1    
    34   17   18 1    
    35   17   86 1    
    36   17   87 1    
    37   18   19 1    
    38   18   37 1    
    39   18   88 1    
    40   19   20 am   BACKBONE|DICT|INTERRES
    41   19   89 1    
    42   20   21 2    
    43   20   22 1    
    44   22   23 1    
    45   22   24 1    
    46   22   90 1    
    47   23   91 1    
    48   23   92 1    
    49   23   93 1    
    50   24   25 am   BACKBONE|DICT|INTERRES
    51   24   94 1    
    52   25   26 2    
    53   25   27 1    
    54   27   28 1    
    55   27   29 1    
    56   27   95 1    
    57   28   96 1    
    58   28   97 1    
    59   28   98 1    
    60   29   30 am   BACKBONE|DICT|INTERRES
    61   29   99 1    
    62   30   31 2    
    63   30   32 1    
    64   32   33 1    
    65   32   34 1    
    66   32  100 1    
    67   33  101 1    
    68   33  102 1    
    69   33  103 1    
    70   34   35 am   BACKBONE|DICT|INTERRES
    71   34  104 1    
    72   35   36 2    
    73   37   38 2    
    74   37   39 am   BACKBONE|DICT|INTERRES
    75   39   40 1    
    76   39  105 1    
    77   40   41 1    
    78   40   42 1    
    79   40  106 1    
    80   41  107 1    
    81   41  108 1    
    82   41  109 1    
    83   42   43 2    
    84   42   44 am   BACKBONE|DICT|INTERRES
    85   44   45 1    
    86   44  110 1    
    87   45   46 1    
    88   45   47 1    
    89   45  111 1    
    90   46  112 1    
    91   46  113 1    
    92   46  114 1    
    93   47   48 2    
    94   47   49 am   BACKBONE|DICT|INTERRES
    95   49   50 1    
    96   49  115 1    
    97   50   51 1    
    98   50   52 1    
    99   50  116 1    
   100   51  117 1    
   101   51  118 1    
   102   51  119 1    
   103   52   53 2    
   104   52   54 am   BACKBONE|DICT|INTERRES
   105   54   55 1    
   106   54  120 1    
   107   55   56 1    
   108   55   57 1    
   109   55  121 1    
   110   56  122 1    
   111   56  123 1    
   112   56  124 1    
   113   57   58 2    
   114   57   59 am   BACKBONE|DICT|INTERRES
   115   59   60 1    
   116   59  125 1    
   117   60   61 1    
   118   60   62 1    
   119   60  126 1    
   120   61  127 1    
   121   61  128 1    
   122   61  129 1    
   123   62   63 2    
   124   62   64 am   BACKBONE|DICT|INTERRES
   125   64   65 1    
   126   64  130 1    
   127   65   66 1    
   128   65   69 1    
   129   65  131 1    
   130   66   67 am   BACKBONE|DICT|INTERRES
   131   66   68 2    
   132   67  132 1    
   133   67  133 1    
   134   69   70 1    
   135   69  134 1    
   136   69  135 1    
   137   70   71 1    
   138   71  136 1    
   139   71  137 1    
@<TRIPOS>SUBSTRUCTURE
     1 UNK         1 GROUP             0       ****    0 ROOT    
