@<TRIPOS>MOLECULE
3R136
137   139    1
SMALL
USER_CHARGES


@<TRIPOS>ATOM
      1 CA         30.4814   28.0933   -0.1323 C.3       0 UNK        -0.1979 
      2 C          30.4190   26.6678   -0.6566 C.2       0 UNK         0.4864 
      3 O          31.1354   26.3314   -1.5995 O.2       0 UNK        -0.5359 
      4 N          29.5626   25.8335   -0.0512 N.am      1 UNK        -0.4318 
      5 CA         29.3379   24.4186   -0.3779 C.3       1 UNK         0.0824 
      6 C6         30.6155   23.5356   -0.2331 C.3       12 UNK        -0.0944 
      7 S7         30.3465   22.1299    0.8973 S.3       12 UNK        -0.2672 
      8 C8         31.5110   22.5085    2.2455 C.3       12 UNK         0.0333 
      9 C9         31.0869   23.7197    3.0667 C.ar      12 UNK        -0.0807 
     10 C10        31.6940   24.9628    2.8616 C.ar      12 UNK        -0.0894 
     11 C11        31.3554   26.0600    3.6588 C.ar      12 UNK        -0.0804 
     12 C12        30.3907   25.9127    4.6601 C.ar      12 UNK        -0.0824 
     13 C13        29.7767   24.6749    4.8752 C.ar      12 UNK        -0.0762 
     14 C14        30.1252   23.5840    4.0724 C.ar      12 UNK        -0.0782 
     15 C15        28.7740   24.4974    6.0061 C.3       12 UNK         0.0230 
     16 S16        27.0593   24.4422    5.4013 S.3       12 UNK        -0.2608 
     17 C17        26.7644   26.1814    4.9328 C.3       12 UNK        -0.0989 
     18 CA         26.7322   26.3845    3.3982 C.3       5 UNK         0.0716 
     19 N          25.7112   25.5501    2.7606 N.am      5 UNK        -0.4135 
     20 C          25.6337   25.3117    1.4484 C.2       4 UNK         0.5031 
     21 O          26.4689   25.6999    0.6243 O.2       4 UNK        -0.5229 
     22 CA         24.4089   24.5180    0.9783 C.3       4 UNK         0.0329 
     23 CB         23.1680   25.4282    0.8972 C.3       4 UNK        -0.2001 
     24 N          24.7137   23.9598   -0.3323 N.am      4 UNK        -0.4303 
     25 C          24.0547   22.9913   -0.9775 C.2       3 UNK         0.5044 
     26 O          23.0624   22.4244   -0.5171 O.2       3 UNK        -0.5152 
     27 CA         24.6060   22.5491   -2.3519 C.3       3 UNK         0.0319 
     28 CB         23.4947   22.4439   -3.4177 C.3       3 UNK        -0.2001 
     29 N          25.7411   23.3519   -2.8345 N.am      3 UNK        -0.4354 
     30 C          25.7490   24.6386   -3.2142 C.2       2 UNK         0.4964 
     31 O          24.7415   25.3425   -3.2935 O.2       2 UNK        -0.5047 
     32 CA         27.1400   25.2495   -3.4658 C.3       2 UNK         0.0288 
     33 CB         27.0698   26.6870   -4.0150 C.3       2 UNK        -0.2113 
     34 N          27.9314   25.2564   -2.2321 N.am      2 UNK        -0.4145 
     35 C          28.5957   24.2090   -1.7207 C.2       1 UNK         0.5006 
     36 O          28.5977   23.0990   -2.2587 O.2       1 UNK        -0.5103 
     37 C          26.4821   27.8684    3.0616 C.2       5 UNK         0.5055 
     38 O          25.3254   28.2975    3.0282 O.2       5 UNK        -0.5220 
     39 N          27.5601   28.6306    2.8563 N.am      6 UNK        -0.4450 
     40 CA         27.5325   30.0668    2.5977 C.3       6 UNK         0.0367 
     41 CB         27.2417   30.3388    1.1101 C.3       6 UNK        -0.1929 
     42 C          28.8903   30.6410    3.0016 C.2       6 UNK         0.5070 
     43 O          29.9042   29.9566    2.8489 O.2       6 UNK        -0.5237 
     44 N          28.9047   31.8933    3.4705 N.am      7 UNK        -0.4739 
     45 CA         30.0971   32.6091    3.9419 C.3       7 UNK         0.0276 
     46 CB         29.6577   33.7129    4.9227 C.3       7 UNK        -0.1927 
     47 C          30.9776   33.1520    2.7954 C.2       7 UNK         0.5013 
     48 O          31.4275   34.2979    2.8516 O.2       7 UNK        -0.5193 
     49 N          31.2126   32.3206    1.7726 N.am      8 UNK        -0.4253 
     50 CA         32.0982   32.6092    0.6403 C.3       8 UNK         0.0242 
     51 CB         31.7034   31.7153   -0.5457 C.3       8 UNK        -0.2000 
     52 C          33.5861   32.4164    0.9890 C.2       8 UNK         0.4948 
     53 O          34.4461   32.9209    0.2657 O.2       8 UNK        -0.5275 
     54 N          33.8616   31.6960    2.0808 N.am      9 UNK        -0.4246 
     55 CA         35.1767   31.4485    2.6546 C.3       9 UNK         0.0261 
     56 CB         35.7786   30.1748    2.0340 C.3       9 UNK        -0.1959 
     57 C          35.0038   31.3076    4.1715 C.2       9 UNK         0.5033 
     58 O          33.8773   31.1264    4.6479 O.2       9 UNK        -0.5390 
     59 N          36.1193   31.3737    4.9079 N.am      10 UNK        -0.4215 
     60 CA         36.1806   31.2349    6.3663 C.3       10 UNK         0.0240 
     61 CB         37.4763   31.8946    6.8761 C.3       10 UNK        -0.1982 
     62 C          36.0473   29.7640    6.8116 C.2       10 UNK         0.4970 
     63 O          36.9776   29.2071    7.3977 O.2       10 UNK        -0.4916 
     64 N          34.8962   29.1582    6.5027 N.am      11 UNK        -0.4279 
     65 CA         34.5574   27.7603    6.8139 C.3       11 UNK         0.1003 
     66 C          34.2771   27.4760    8.3188 C.2       11 UNK         0.5709 
     67 N          34.0908   28.4820    9.1656 N.am      11 UNK        -0.7358 
     68 O          34.2362   26.3177    8.7268 O.2       11 UNK        -0.4999 
     69 C69        33.3903   27.2474    5.9313 C.3       12 UNK        -0.0954 
     70 S70        33.7445   27.3702    4.1460 S.3       12 UNK        -0.2268 
     71 C71        32.0603   27.3938    3.4585 C.3       12 UNK         0.0203 
     72 H72        30.1287   28.7905   -0.8917 H         1 UNK         0.0888 
     73 H73        29.8741   28.2240    0.7622 H         1 UNK         0.0888 
     74 H74        31.5096   28.3499    0.1192 H         1 UNK         0.0888 
     75 H75        28.9694   26.1844    0.6879 H         1 UNK         0.3017 
     76 H76        28.6153   24.0970    0.3734 H         1 UNK         0.0873 
     77 H77        31.4566   24.1219    0.1356 H         1 UNK         0.0745 
     78 H78        30.9612   23.1462   -1.1925 H         1 UNK         0.0745 
     79 H79        32.5103   22.6536    1.8318 H         1 UNK         0.0705 
     80 H80        31.5816   21.6375    2.8987 H         1 UNK         0.0705 
     81 H81        32.4535   25.0742    2.1000 H         1 UNK         0.1334 
     82 H82        30.1384   26.7555    5.2891 H         1 UNK         0.1417 
     83 H83        29.6590   22.6228    4.2423 H         1 UNK         0.1562 
     84 H84        28.8770   25.2897    6.7493 H         1 UNK         0.0748 
     85 H85        28.9880   23.5652    6.5311 H         1 UNK         0.0748 
     86 H86        27.5281   26.8140    5.3891 H         1 UNK         0.0940 
     87 H87        25.8174   26.4910    5.3800 H         1 UNK         0.0940 
     88 H88        27.7042   26.0946    2.9922 H         1 UNK         0.0703 
     89 H89        24.9785   25.2113    3.3660 H         1 UNK         0.3081 
     90 H90        24.2283   23.7003    1.6790 H         1 UNK         0.0719 
     91 H91        22.9466   25.8821    1.8639 H         1 UNK         0.0809 
     92 H92        23.3137   26.2390    0.1820 H         1 UNK         0.0809 
     93 H93        22.2813   24.8714    0.5940 H         1 UNK         0.0809 
     94 H94        25.5306   24.3726   -0.7642 H         1 UNK         0.2990 
     95 H95        25.0044   21.5451   -2.1985 H         1 UNK         0.0690 
     96 H96        23.8946   22.1197   -4.3784 H         1 UNK         0.0788 
     97 H97        22.9832   23.3948   -3.5691 H         1 UNK         0.0788 
     98 H98        22.7380   21.7164   -3.1215 H         1 UNK         0.0788 
     99 H99        26.6497   22.9019   -2.7617 H         1 UNK         0.2993 
    100 H100       27.6424   24.6298   -4.2121 H         1 UNK         0.0949 
    101 H101       28.0649   27.0770   -4.2302 H         1 UNK         0.0767 
    102 H102       26.5008   26.7222   -4.9451 H         1 UNK         0.0767 
    103 H103       26.5884   27.3673   -3.3109 H         1 UNK         0.0767 
    104 H104       27.9210   26.1110   -1.6940 H         1 UNK         0.3013 
    105 H105       28.4936   28.2510    2.9563 H         1 UNK         0.3121 
    106 H106       26.7592   30.5305    3.2144 H         1 UNK         0.0774 
    107 H107       26.2690   29.9440    0.8162 H         1 UNK         0.0815 
    108 H108       27.2312   31.4096    0.9027 H         1 UNK         0.0815 
    109 H109       27.9937   29.8885    0.4618 H         1 UNK         0.0815 
    110 H110       28.0336   32.4034    3.5148 H         1 UNK         0.2987 
    111 H111       30.7217   31.9063    4.4993 H         1 UNK         0.0949 
    112 H112       29.0796   33.3020    5.7506 H         1 UNK         0.0806 
    113 H113       30.5212   34.2188    5.3571 H         1 UNK         0.0806 
    114 H114       29.0483   34.4713    4.4297 H         1 UNK         0.0806 
    115 H115       30.8174   31.3871    1.8348 H         1 UNK         0.3010 
    116 H116       31.9603   33.6515    0.3443 H         1 UNK         0.0829 
    117 H117       30.6521   31.8379   -0.8070 H         1 UNK         0.0813 
    118 H118       32.2891   31.9643   -1.4318 H         1 UNK         0.0813 
    119 H119       31.8782   30.6624   -0.3281 H         1 UNK         0.0813 
    120 H120       33.0998   31.3712    2.6638 H         1 UNK         0.3038 
    121 H121       35.8289   32.3027    2.4600 H         1 UNK         0.0769 
    122 H122       35.1466   29.3041    2.2123 H         1 UNK         0.0811 
    123 H123       36.7623   29.9559    2.4504 H         1 UNK         0.0811 
    124 H124       35.9014   30.2809    0.9560 H         1 UNK         0.0811 
    125 H125       37.0039   31.4894    4.4338 H         1 UNK         0.3204 
    126 H126       35.3408   31.7797    6.8036 H         1 UNK         0.0748 
    127 H127       37.5419   31.8385    7.9637 H         1 UNK         0.0771 
    128 H128       38.3654   31.4102    6.4701 H         1 UNK         0.0771 
    129 H129       37.5166   32.9502    6.6065 H         1 UNK         0.0771 
    130 H130       34.2123   29.6839    5.9672 H         1 UNK         0.2980 
    131 H131       35.4348   27.1605    6.5646 H         1 UNK         0.0545 
    132 H132       33.9155   28.2829   10.1378 H         1 UNK         0.3459 
    133 H133       34.1204   29.4350    8.8416 H         1 UNK         0.3459 
    134 H134       33.1705   26.2006    6.1497 H         1 UNK         0.0616 
    135 H135       32.4803   27.8076    6.1535 H         1 UNK         0.0616 
    136 H136       31.4986   28.2054    3.9214 H         1 UNK         0.0634 
    137 H137       32.1157   27.6239    2.3945 H         1 UNK         0.0634 
@<TRIPOS>BOND
     1    1    2 1    
     2    1   72 1    
     3    1   73 1    
     4    1   74 1    
     5    2    3 2    
     6    2    4 am   BACKBONE|DICT|INTERRES
     7    4    5 1    
     8    4   75 1    
     9    5    6 1    
    10    5   35 1    
    11    5   76 1    
    12    6    7 1    
    13    6   77 1    
    14    6   78 1    
    15    7    8 1    
    16    8    9 1    
    17    8   79 1    
    18    8   80 1    
    19    9   10 ar   
    20    9   14 ar   
    21   10   11 ar   
    22   10   81 1    
    23   11   12 ar   
    24   11   71 1    
    25   12   13 ar   
    26   12   82 1    
    27   13   14 ar   
    28   13   15 1    
    29   14   83 1    
    30   15   16 1    
    31   15   84 1    
    32   15   85 1    
    33   16   17 1    
    34   17   18 1    
    35   17   86 1    
    36   17   87 1    
    37   18   19 1    
    38   18   37 1    
    39   18   88 1    
    40   19   20 am   BACKBONE|DICT|INTERRES
    41   19   89 1    
    42   20   21 2    
    43   20   22 1    
    44   22   23 1    
    45   22   24 1    
    46   22   90 1    
    47   23   91 1    
    48   23   92 1    
    49   23   93 1    
    50   24   25 am   BACKBONE|DICT|INTERRES
    51   24   94 1    
    52   25   26 2    
    53   25   27 1    
    54   27   28 1    
    55   27   29 1    
    56   27   95 1    
    57   28   96 1    
    58   28   97 1    
    59   28   98 1    
    60   29   30 am   BACKBONE|DICT|INTERRES
    61   29   99 1    
    62   30   31 2    
    63   30   32 1    
    64   32   33 1    
    65   32   34 1    
    66   32  100 1    
    67   33  101 1    
    68   33  102 1    
    69   33  103 1    
    70   34   35 am   BACKBONE|DICT|INTERRES
    71   34  104 1    
    72   35   36 2    
    73   37   38 2    
    74   37   39 am   BACKBONE|DICT|INTERRES
    75   39   40 1    
    76   39  105 1    
    77   40   41 1    
    78   40   42 1    
    79   40  106 1    
    80   41  107 1    
    81   41  108 1    
    82   41  109 1    
    83   42   43 2    
    84   42   44 am   BACKBONE|DICT|INTERRES
    85   44   45 1    
    86   44  110 1    
    87   45   46 1    
    88   45   47 1    
    89   45  111 1    
    90   46  112 1    
    91   46  113 1    
    92   46  114 1    
    93   47   48 2    
    94   47   49 am   BACKBONE|DICT|INTERRES
    95   49   50 1    
    96   49  115 1    
    97   50   51 1    
    98   50   52 1    
    99   50  116 1    
   100   51  117 1    
   101   51  118 1    
   102   51  119 1    
   103   52   53 2    
   104   52   54 am   BACKBONE|DICT|INTERRES
   105   54   55 1    
   106   54  120 1    
   107   55   56 1    
   108   55   57 1    
   109   55  121 1    
   110   56  122 1    
   111   56  123 1    
   112   56  124 1    
   113   57   58 2    
   114   57   59 am   BACKBONE|DICT|INTERRES
   115   59   60 1    
   116   59  125 1    
   117   60   61 1    
   118   60   62 1    
   119   60  126 1    
   120   61  127 1    
   121   61  128 1    
   122   61  129 1    
   123   62   63 2    
   124   62   64 am   BACKBONE|DICT|INTERRES
   125   64   65 1    
   126   64  130 1    
   127   65   66 1    
   128   65   69 1    
   129   65  131 1    
   130   66   67 am   BACKBONE|DICT|INTERRES
   131   66   68 2    
   132   67  132 1    
   133   67  133 1    
   134   69   70 1    
   135   69  134 1    
   136   69  135 1    
   137   70   71 1    
   138   71  136 1    
   139   71  137 1    
@<TRIPOS>SUBSTRUCTURE
     1 UNK         1 GROUP             0       ****    0 ROOT    
