@<TRIPOS>MOLECULE
3R136
137   139    1
SMALL
USER_CHARGES


@<TRIPOS>ATOM
      1 CA         28.6348   22.9804   -2.5121 C.3       0 UNK        -0.1979 
      2 C          28.4427   23.2902   -1.0365 C.2       0 UNK         0.4864 
      3 O          27.9461   24.3675   -0.7009 O.2       0 UNK        -0.5359 
      4 N          28.8159   22.3508   -0.1539 N.am      1 UNK        -0.4318 
      5 CA         28.7861   22.4844    1.3110 C.3       1 UNK         0.0824 
      6 C6         29.3547   21.2408    2.0397 C.3       12 UNK        -0.0944 
      7 S7         30.9986   20.7239    1.4461 S.3       12 UNK        -0.2672 
      8 C8         32.1062   21.6298    2.5762 C.3       12 UNK         0.0333 
      9 C9         32.2114   23.1095    2.2282 C.ar      12 UNK        -0.0807 
     10 C10        31.9447   24.0896    3.1898 C.ar      12 UNK        -0.0894 
     11 C11        32.0882   25.4466    2.8792 C.ar      12 UNK        -0.0804 
     12 C12        32.4828   25.8219    1.5917 C.ar      12 UNK        -0.0824 
     13 C13        32.7361   24.8514    0.6194 C.ar      12 UNK        -0.0762 
     14 C14        32.6092   23.4997    0.9463 C.ar      12 UNK        -0.0782 
     15 C15        33.1533   25.2490   -0.7858 C.3       12 UNK         0.0230 
     16 S16        31.7079   25.4116   -1.8776 S.3       12 UNK        -0.2608 
     17 C17        31.3062   27.1812   -1.7003 C.3       12 UNK        -0.0989 
     18 CA         29.7814   27.4357   -1.5488 C.3       5 UNK         0.0716 
     19 N          29.2266   26.8823   -0.3023 N.am      5 UNK        -0.4135 
     20 C          29.3864   27.3682    0.9395 C.2       4 UNK         0.5031 
     21 O          30.1226   28.3182    1.2063 O.2       4 UNK        -0.5229 
     22 CA         28.5125   26.7547    2.0547 C.3       4 UNK         0.0329 
     23 CB         28.3266   27.7121    3.2512 C.3       4 UNK        -0.2001 
     24 N          27.2030   26.2902    1.5795 N.am      4 UNK        -0.4303 
     25 C          26.2822   26.9910    0.8952 C.2       3 UNK         0.5044 
     26 O          26.3987   28.1896    0.6358 O.2       3 UNK        -0.5152 
     27 CA         25.0639   26.2260    0.3449 C.3       3 UNK         0.0319 
     28 CB         24.8862   26.5013   -1.1594 C.3       3 UNK        -0.2001 
     29 N          25.2075   24.7814    0.5338 N.am      3 UNK        -0.4354 
     30 C          24.5127   24.0401    1.4073 C.2       2 UNK         0.4964 
     31 O          23.5920   24.4753    2.0993 O.2       2 UNK        -0.5047 
     32 CA         24.9260   22.5625    1.5550 C.3       2 UNK         0.0288 
     33 CB         24.0279   21.6653    0.6880 C.3       2 UNK        -0.2113 
     34 N          26.3311   22.2995    1.2231 N.am      2 UNK        -0.4145 
     35 C          27.3879   22.8117    1.8729 C.2       1 UNK         0.5006 
     36 O          27.2917   23.5537    2.8506 O.2       1 UNK        -0.5103 
     37 C          29.4167   28.9278   -1.7777 C.2       5 UNK         0.5055 
     38 O          30.1483   29.6297   -2.4783 O.2       5 UNK        -0.5220 
     39 N          28.3138   29.3987   -1.1696 N.am      6 UNK        -0.4450 
     40 CA         27.8739   30.7965   -1.0766 C.3       6 UNK         0.0367 
     41 CB         27.5023   31.3612   -2.4643 C.3       6 UNK        -0.1929 
     42 C          28.8517   31.7099   -0.3024 C.2       6 UNK         0.5070 
     43 O          28.7704   32.9314   -0.4383 O.2       6 UNK        -0.5237 
     44 N          29.7398   31.1241    0.5161 N.am      7 UNK        -0.4739 
     45 CA         30.7438   31.8350    1.3143 C.3       7 UNK         0.0276 
     46 CB         32.0154   30.9708    1.4083 C.3       7 UNK        -0.1927 
     47 C          30.2398   32.2099    2.7189 C.2       7 UNK         0.5013 
     48 O          31.0295   32.7188    3.5127 O.2       7 UNK        -0.5193 
     49 N          28.9647   31.9238    3.0294 N.am      8 UNK        -0.4253 
     50 CA         28.2766   32.2173    4.2978 C.3       8 UNK         0.0242 
     51 CB         28.0317   33.7354    4.4332 C.3       8 UNK        -0.2000 
     52 C          28.9805   31.6175    5.5346 C.2       8 UNK         0.4948 
     53 O          29.0131   32.2448    6.5944 O.2       8 UNK        -0.5275 
     54 N          29.5473   30.4153    5.3543 N.am      9 UNK        -0.4246 
     55 CA         30.3257   29.6348    6.3235 C.3       9 UNK         0.0261 
     56 CB         29.4748   29.2514    7.5532 C.3       9 UNK        -0.1959 
     57 C          31.6835   30.2605    6.7083 C.2       9 UNK         0.5033 
     58 O          32.2601   29.8632    7.7223 O.2       9 UNK        -0.5390 
     59 N          32.2230   31.1664    5.8745 N.am      10 UNK        -0.4215 
     60 CA         33.5736   31.7315    6.0238 C.3       10 UNK         0.0240 
     61 CB         33.7044   32.9902    5.1504 C.3       10 UNK        -0.1982 
     62 C          34.7127   30.7361    5.7131 C.2       10 UNK         0.4970 
     63 O          35.8792   31.0870    5.8955 O.2       10 UNK        -0.4916 
     64 N          34.3665   29.5257    5.2552 N.am      11 UNK        -0.4279 
     65 CA         35.2719   28.3933    5.0159 C.3       11 UNK         0.1003 
     66 C          36.0322   27.8662    6.2712 C.2       11 UNK         0.5709 
     67 N          35.5848   28.1532    7.4889 N.am      11 UNK        -0.7358 
     68 O          37.0510   27.1932    6.1327 O.2       11 UNK        -0.4999 
     69 C69        34.5379   27.2462    4.2691 C.3       12 UNK        -0.0954 
     70 S70        33.1137   26.5680    5.1983 S.3       12 UNK        -0.2268 
     71 C71        31.8095   26.5076    3.9331 C.3       12 UNK         0.0203 
     72 H72        27.6720   22.9754   -3.0221 H         1 UNK         0.0888 
     73 H73        29.2613   23.7431   -2.9737 H         1 UNK         0.0888 
     74 H74        29.1098   22.0120   -2.6673 H         1 UNK         0.0888 
     75 H75        29.2292   21.4933   -0.4928 H         1 UNK         0.3017 
     76 H76        29.4240   23.3372    1.5518 H         1 UNK         0.0873 
     77 H77        29.4088   21.4194    3.1156 H         1 UNK         0.0745 
     78 H78        28.6851   20.3877    1.9119 H         1 UNK         0.0745 
     79 H79        31.7746   21.4870    3.6059 H         1 UNK         0.0705 
     80 H80        33.1020   21.1891    2.5130 H         1 UNK         0.0705 
     81 H81        31.6432   23.8005    4.1875 H         1 UNK         0.1334 
     82 H82        32.5842   26.8699    1.3445 H         1 UNK         0.1417 
     83 H83        32.8135   22.7462    0.1975 H         1 UNK         0.1562 
     84 H84        33.8174   24.4890   -1.2004 H         1 UNK         0.0748 
     85 H85        33.7306   26.1746   -0.7731 H         1 UNK         0.0748 
     86 H86        31.7023   27.6675   -2.5936 H         1 UNK         0.0940 
     87 H87        31.8454   27.6176   -0.8585 H         1 UNK         0.0940 
     88 H88        29.2768   26.9002   -2.3545 H         1 UNK         0.0703 
     89 H89        28.6377   26.0590   -0.4197 H         1 UNK         0.3081 
     90 H90        29.0467   25.8714    2.4074 H         1 UNK         0.0719 
     91 H91        29.2857   27.9959    3.6804 H         1 UNK         0.0809 
     92 H92        27.8159   28.6298    2.9580 H         1 UNK         0.0809 
     93 H93        27.7450   27.2436    4.0452 H         1 UNK         0.0809 
     94 H94        27.0071   25.3140    1.7667 H         1 UNK         0.2990 
     95 H95        24.1839   26.6006    0.8711 H         1 UNK         0.0690 
     96 H96        24.0223   25.9700   -1.5590 H         1 UNK         0.0788 
     97 H97        25.7630   26.1932   -1.7310 H         1 UNK         0.0788 
     98 H98        24.7268   27.5634   -1.3509 H         1 UNK         0.0788 
     99 H99        25.9696   24.3501    0.0209 H         1 UNK         0.2993 
    100 H100       24.7775   22.2900    2.6022 H         1 UNK         0.0949 
    101 H101       22.9747   21.8168    0.9299 H         1 UNK         0.0767 
    102 H102       24.1516   21.8765   -0.3751 H         1 UNK         0.0767 
    103 H103       24.2460   20.6094    0.8497 H         1 UNK         0.0767 
    104 H104       26.5063   21.7074    0.4239 H         1 UNK         0.3013 
    105 H105       27.7650   28.7575   -0.6013 H         1 UNK         0.3121 
    106 H106       26.9601   30.7750   -0.4809 H         1 UNK         0.0774 
    107 H107       28.3800   31.4985   -3.0962 H         1 UNK         0.0815 
    108 H108       27.0161   32.3331   -2.3731 H         1 UNK         0.0815 
    109 H109       26.8096   30.7028   -2.9882 H         1 UNK         0.0815 
    110 H110       29.7535   30.1096    0.5948 H         1 UNK         0.2987 
    111 H111       31.0098   32.7671    0.8112 H         1 UNK         0.0949 
    112 H112       31.8582   30.0794    2.0160 H         1 UNK         0.0806 
    113 H113       32.3520   30.6491    0.4226 H         1 UNK         0.0806 
    114 H114       32.8347   31.5294    1.8626 H         1 UNK         0.0806 
    115 H115       28.4067   31.4846    2.3108 H         1 UNK         0.3010 
    116 H116       27.3021   31.7298    4.2407 H         1 UNK         0.0829 
    117 H117       27.4145   33.9579    5.3046 H         1 UNK         0.0813 
    118 H118       28.9663   34.2859    4.5473 H         1 UNK         0.0813 
    119 H119       27.5128   34.1333    3.5610 H         1 UNK         0.0813 
    120 H120       29.4691   30.0115    4.4321 H         1 UNK         0.3038 
    121 H121       30.5770   28.7043    5.8128 H         1 UNK         0.0769 
    122 H122       29.2473   30.1169    8.1759 H         1 UNK         0.0811 
    123 H123       29.9986   28.5307    8.1824 H         1 UNK         0.0811 
    124 H124       28.5317   28.7926    7.2564 H         1 UNK         0.0811 
    125 H125       31.6849   31.4986    5.0801 H         1 UNK         0.3204 
    126 H126       33.6946   32.0350    7.0658 H         1 UNK         0.0748 
    127 H127       34.6589   33.4898    5.3217 H         1 UNK         0.0771 
    128 H128       33.6503   32.7502    4.0879 H         1 UNK         0.0771 
    129 H129       32.9187   33.7127    5.3727 H         1 UNK         0.0771 
    130 H130       33.3856   29.3212    5.1535 H         1 UNK         0.2980 
    131 H131       36.0473   28.7651    4.3437 H         1 UNK         0.0545 
    132 H132       36.0858   27.8112    8.2933 H         1 UNK         0.3459 
    133 H133       34.7370   28.6865    7.6084 H         1 UNK         0.3459 
    134 H134       34.1936   27.6127    3.3012 H         1 UNK         0.0616 
    135 H135       35.2244   26.4280    4.0441 H         1 UNK         0.0616 
    136 H136       31.6984   27.4936    3.4789 H         1 UNK         0.0634 
    137 H137       30.8616   26.2824    4.4233 H         1 UNK         0.0634 
@<TRIPOS>BOND
     1    1    2 1    
     2    1   72 1    
     3    1   73 1    
     4    1   74 1    
     5    2    3 2    
     6    2    4 am   BACKBONE|DICT|INTERRES
     7    4    5 1    
     8    4   75 1    
     9    5    6 1    
    10    5   35 1    
    11    5   76 1    
    12    6    7 1    
    13    6   77 1    
    14    6   78 1    
    15    7    8 1    
    16    8    9 1    
    17    8   79 1    
    18    8   80 1    
    19    9   10 ar   
    20    9   14 ar   
    21   10   11 ar   
    22   10   81 1    
    23   11   12 ar   
    24   11   71 1    
    25   12   13 ar   
    26   12   82 1    
    27   13   14 ar   
    28   13   15 1    
    29   14   83 1    
    30   15   16 1    
    31   15   84 1    
    32   15   85 1    
    33   16   17 1    
    34   17   18 1    
    35   17   86 1    
    36   17   87 1    
    37   18   19 1    
    38   18   37 1    
    39   18   88 1    
    40   19   20 am   BACKBONE|DICT|INTERRES
    41   19   89 1    
    42   20   21 2    
    43   20   22 1    
    44   22   23 1    
    45   22   24 1    
    46   22   90 1    
    47   23   91 1    
    48   23   92 1    
    49   23   93 1    
    50   24   25 am   BACKBONE|DICT|INTERRES
    51   24   94 1    
    52   25   26 2    
    53   25   27 1    
    54   27   28 1    
    55   27   29 1    
    56   27   95 1    
    57   28   96 1    
    58   28   97 1    
    59   28   98 1    
    60   29   30 am   BACKBONE|DICT|INTERRES
    61   29   99 1    
    62   30   31 2    
    63   30   32 1    
    64   32   33 1    
    65   32   34 1    
    66   32  100 1    
    67   33  101 1    
    68   33  102 1    
    69   33  103 1    
    70   34   35 am   BACKBONE|DICT|INTERRES
    71   34  104 1    
    72   35   36 2    
    73   37   38 2    
    74   37   39 am   BACKBONE|DICT|INTERRES
    75   39   40 1    
    76   39  105 1    
    77   40   41 1    
    78   40   42 1    
    79   40  106 1    
    80   41  107 1    
    81   41  108 1    
    82   41  109 1    
    83   42   43 2    
    84   42   44 am   BACKBONE|DICT|INTERRES
    85   44   45 1    
    86   44  110 1    
    87   45   46 1    
    88   45   47 1    
    89   45  111 1    
    90   46  112 1    
    91   46  113 1    
    92   46  114 1    
    93   47   48 2    
    94   47   49 am   BACKBONE|DICT|INTERRES
    95   49   50 1    
    96   49  115 1    
    97   50   51 1    
    98   50   52 1    
    99   50  116 1    
   100   51  117 1    
   101   51  118 1    
   102   51  119 1    
   103   52   53 2    
   104   52   54 am   BACKBONE|DICT|INTERRES
   105   54   55 1    
   106   54  120 1    
   107   55   56 1    
   108   55   57 1    
   109   55  121 1    
   110   56  122 1    
   111   56  123 1    
   112   56  124 1    
   113   57   58 2    
   114   57   59 am   BACKBONE|DICT|INTERRES
   115   59   60 1    
   116   59  125 1    
   117   60   61 1    
   118   60   62 1    
   119   60  126 1    
   120   61  127 1    
   121   61  128 1    
   122   61  129 1    
   123   62   63 2    
   124   62   64 am   BACKBONE|DICT|INTERRES
   125   64   65 1    
   126   64  130 1    
   127   65   66 1    
   128   65   69 1    
   129   65  131 1    
   130   66   67 am   BACKBONE|DICT|INTERRES
   131   66   68 2    
   132   67  132 1    
   133   67  133 1    
   134   69   70 1    
   135   69  134 1    
   136   69  135 1    
   137   70   71 1    
   138   71  136 1    
   139   71  137 1    
@<TRIPOS>SUBSTRUCTURE
     1 UNK         1 GROUP             0       ****    0 ROOT    
