@<TRIPOS>MOLECULE
3R136
137   139    1
SMALL
USER_CHARGES


@<TRIPOS>ATOM
      1 CA         29.0475   19.1288   -3.3900 C.3       0 UNK        -0.1979 
      2 C          28.5359   20.5044   -2.9890 C.2       0 UNK         0.4864 
      3 O          27.7070   21.0775   -3.6972 O.2       0 UNK        -0.5359 
      4 N          29.0295   21.0371   -1.8634 N.am      1 UNK        -0.4318 
      5 CA         28.6292   22.3252   -1.2846 C.3       1 UNK         0.0824 
      6 C6         29.6092   22.7965   -0.1763 C.3       12 UNK        -0.0944 
      7 S7         29.9316   21.5322    1.1063 S.3       12 UNK        -0.2672 
      8 C8         31.5291   22.0867    1.7852 C.3       12 UNK         0.0333 
      9 C9         31.4277   23.4052    2.5433 C.ar      12 UNK        -0.0807 
     10 C10        32.3107   24.4510    2.2531 C.ar      12 UNK        -0.0894 
     11 C11        32.2448   25.6535    2.9630 C.ar      12 UNK        -0.0804 
     12 C12        31.2878   25.8058    3.9684 C.ar      12 UNK        -0.0824 
     13 C13        30.3820   24.7800    4.2514 C.ar      12 UNK        -0.0762 
     14 C14        30.4673   23.5766    3.5471 C.ar      12 UNK        -0.0782 
     15 C15        29.2938   24.9829    5.2962 C.3       12 UNK         0.0230 
     16 S16        27.7392   25.5706    4.5421 S.3       12 UNK        -0.2608 
     17 C17        28.2381   27.2144    3.9267 C.3       12 UNK        -0.0989 
     18 CA         28.5347   27.1943    2.4012 C.3       5 UNK         0.0716 
     19 N          27.2940   27.0443    1.6322 N.am      5 UNK        -0.4135 
     20 C          27.1808   26.6452    0.3609 C.2       4 UNK         0.5031 
     21 O          28.1416   26.3399   -0.3494 O.2       4 UNK        -0.5229 
     22 CA         25.7500   26.5828   -0.1952 C.3       4 UNK         0.0329 
     23 CB         25.7109   26.5040   -1.7329 C.3       4 UNK        -0.2001 
     24 N          25.0346   25.4407    0.3753 N.am      4 UNK        -0.4303 
     25 C          24.4074   25.4547    1.5612 C.2       3 UNK         0.5044 
     26 O          24.3829   26.4451    2.2944 O.2       3 UNK        -0.5152 
     27 CA         23.6675   24.1803    2.0122 C.3       3 UNK         0.0319 
     28 CB         22.1480   24.3670    1.8676 C.3       3 UNK        -0.2001 
     29 N          24.0676   22.9800    1.2751 N.am      3 UNK        -0.4354 
     30 C          25.1635   22.2565    1.5375 C.2       2 UNK         0.4964 
     31 O          25.9298   22.4918    2.4724 O.2       2 UNK        -0.5047 
     32 CA         25.4796   21.0782    0.5926 C.3       2 UNK         0.0288 
     33 CB         24.3838   20.7853   -0.4594 C.3       2 UNK        -0.2113 
     34 N          26.7806   21.2627   -0.0598 N.am      2 UNK        -0.4145 
     35 C          27.1663   22.3197   -0.7930 C.2       1 UNK         0.5006 
     36 O          26.4203   23.2530   -1.0928 O.2       1 UNK        -0.5103 
     37 C          29.3820   28.4079    1.9431 C.2       5 UNK         0.5055 
     38 O          29.7545   29.2409    2.7692 O.2       5 UNK        -0.5220 
     39 N          29.6807   28.4808    0.6380 N.am      6 UNK        -0.4450 
     40 CA         30.4541   29.5188   -0.0518 C.3       6 UNK         0.0367 
     41 CB         31.9593   29.3620    0.2616 C.3       6 UNK        -0.1929 
     42 C          29.8962   30.9376    0.1937 C.2       6 UNK         0.5070 
     43 O          28.6906   31.1452    0.0415 O.2       6 UNK        -0.5237 
     44 N          30.7718   31.8847    0.5427 N.am      7 UNK        -0.4739 
     45 CA         30.4771   33.2836    0.8332 C.3       7 UNK         0.0276 
     46 CB         30.2782   34.0607   -0.4844 C.3       7 UNK        -0.1927 
     47 C          31.6385   33.8591    1.6573 C.2       7 UNK         0.5013 
     48 O          32.6331   33.1591    1.8829 O.2       7 UNK        -0.5193 
     49 N          31.4982   35.1261    2.0751 N.am      8 UNK        -0.4253 
     50 CA         32.4765   35.9274    2.8215 C.3       8 UNK         0.0242 
     51 CB         33.6883   36.2788    1.9269 C.3       8 UNK        -0.2000 
     52 C          32.8580   35.2632    4.1568 C.2       8 UNK         0.4948 
     53 O          32.0693   35.3244    5.1007 O.2       8 UNK        -0.5275 
     54 N          34.0365   34.6263    4.2058 N.am      9 UNK        -0.4246 
     55 CA         34.5235   33.8456    5.3453 C.3       9 UNK         0.0261 
     56 CB         36.0084   33.5090    5.1323 C.3       9 UNK        -0.1959 
     57 C          33.7155   32.5602    5.6023 C.2       9 UNK         0.5033 
     58 O          33.7127   32.0836    6.7381 O.2       9 UNK        -0.5390 
     59 N          33.0642   32.0176    4.5586 N.am      10 UNK        -0.4215 
     60 CA         32.1530   30.8632    4.5840 C.3       10 UNK         0.0240 
     61 CB         30.8208   31.2686    5.2498 C.3       10 UNK        -0.1982 
     62 C          32.7599   29.5847    5.2034 C.2       10 UNK         0.4970 
     63 O          32.0487   28.8284    5.8670 O.2       10 UNK        -0.4916 
     64 N          34.0699   29.3843    4.9937 N.am      11 UNK        -0.4279 
     65 CA         34.8995   28.3291    5.6059 C.3       11 UNK         0.1003 
     66 C          35.0432   28.4325    7.1586 C.2       11 UNK         0.5709 
     67 N          34.7150   29.5531    7.7918 N.am      11 UNK        -0.7358 
     68 O          35.5014   27.4934    7.8058 O.2       11 UNK        -0.4999 
     69 C69        34.5212   26.8950    5.1282 C.3       12 UNK        -0.0954 
     70 S70        34.8283   26.6332    3.3485 S.3       12 UNK        -0.2268 
     71 C71        33.1733   26.8069    2.6140 C.3       12 UNK         0.0203 
     72 H72        29.7794   18.7427   -2.6805 H         1 UNK         0.0888 
     73 H73        28.2201   18.4215   -3.4418 H         1 UNK         0.0888 
     74 H74        29.5189   19.1750   -4.3713 H         1 UNK         0.0888 
     75 H75        29.7106   20.5204   -1.3244 H         1 UNK         0.3017 
     76 H76        28.6757   23.0641   -2.0879 H         1 UNK         0.0873 
     77 H77        30.5607   23.0672   -0.6364 H         1 UNK         0.0745 
     78 H78        29.2473   23.7077    0.3058 H         1 UNK         0.0745 
     79 H79        32.2553   22.1544    0.9736 H         1 UNK         0.0705 
     80 H80        31.9019   21.3222    2.4679 H         1 UNK         0.0705 
     81 H81        33.0530   24.3321    1.4755 H         1 UNK         0.1334 
     82 H82        31.2305   26.7385    4.5116 H         1 UNK         0.1417 
     83 H83        29.7712   22.7782    3.7666 H         1 UNK         0.1562 
     84 H84        29.6220   25.6901    6.0599 H         1 UNK         0.0748 
     85 H85        29.1007   24.0431    5.8157 H         1 UNK         0.0748 
     86 H86        29.0975   27.5497    4.5085 H         1 UNK         0.0940 
     87 H87        27.4459   27.9306    4.1519 H         1 UNK         0.0940 
     88 H88        29.1502   26.3182    2.1879 H         1 UNK         0.0703 
     89 H89        26.4351   27.2229    2.1387 H         1 UNK         0.3081 
     90 H90        25.2424   27.5069    0.0905 H         1 UNK         0.0719 
     91 H91        26.2221   25.6199   -2.1132 H         1 UNK         0.0809 
     92 H92        24.6858   26.4828   -2.1029 H         1 UNK         0.0809 
     93 H93        26.1980   27.3730   -2.1768 H         1 UNK         0.0809 
     94 H94        25.1209   24.5660   -0.1317 H         1 UNK         0.2990 
     95 H95        23.8904   24.0343    3.0715 H         1 UNK         0.0690 
     96 H96        21.6039   23.5012    2.2458 H         1 UNK         0.0788 
     97 H97        21.8563   24.5207    0.8279 H         1 UNK         0.0788 
     98 H98        21.8054   25.2345    2.4337 H         1 UNK         0.0788 
     99 H99        23.5016   22.7220    0.4793 H         1 UNK         0.2993 
    100 H100       25.5715   20.1972    1.2297 H         1 UNK         0.0949 
    101 H101       24.2395   21.6147   -1.1528 H         1 UNK         0.0767 
    102 H102       24.6430   19.9086   -1.0533 H         1 UNK         0.0767 
    103 H103       23.4250   20.5727    0.0155 H         1 UNK         0.0767 
    104 H104       27.4857   20.5743    0.1638 H         1 UNK         0.3013 
    105 H105       29.2875   27.7511    0.0463 H         1 UNK         0.3121 
    106 H106       30.3228   29.3322   -1.1186 H         1 UNK         0.0774 
    107 H107       32.5647   30.0520   -0.3275 H         1 UNK         0.0815 
    108 H108       32.1788   29.5380    1.3147 H         1 UNK         0.0815 
    109 H109       32.3018   28.3587    0.0112 H         1 UNK         0.0815 
    110 H110       31.7392   31.6347    0.7099 H         1 UNK         0.2987 
    111 H111       29.5701   33.3380    1.4394 H         1 UNK         0.0949 
    112 H112       30.0289   35.1059   -0.2994 H         1 UNK         0.0806 
    113 H113       31.1789   34.0432   -1.0995 H         1 UNK         0.0806 
    114 H114       29.4637   33.6421   -1.0757 H         1 UNK         0.0806 
    115 H115       30.6274   35.5966    1.8706 H         1 UNK         0.3010 
    116 H116       31.9807   36.8646    3.0800 H         1 UNK         0.0829 
    117 H117       33.3751   36.8686    1.0654 H         1 UNK         0.0813 
    118 H118       34.4198   36.8772    2.4720 H         1 UNK         0.0813 
    119 H119       34.1998   35.3946    1.5453 H         1 UNK         0.0813 
    120 H120       34.6010   34.6126    3.3683 H         1 UNK         0.3038 
    121 H121       34.4376   34.4673    6.2391 H         1 UNK         0.0769 
    122 H122       36.4061   32.9464    5.9784 H         1 UNK         0.0811 
    123 H123       36.6105   34.4128    5.0363 H         1 UNK         0.0811 
    124 H124       36.1630   32.9047    4.2375 H         1 UNK         0.0811 
    125 H125       33.1335   32.4884    3.6590 H         1 UNK         0.3204 
    126 H126       31.9405   30.6220    3.5421 H         1 UNK         0.0748 
    127 H127       30.0857   30.4656    5.1825 H         1 UNK         0.0771 
    128 H128       30.9532   31.5028    6.3065 H         1 UNK         0.0771 
    129 H129       30.3868   32.1420    4.7629 H         1 UNK         0.0771 
    130 H130       34.5723   30.0667    4.4463 H         1 UNK         0.2980 
    131 H131       35.9098   28.5248    5.2453 H         1 UNK         0.0545 
    132 H132       34.3382   30.3556    7.2952 H         1 UNK         0.3459 
    133 H133       34.8304   29.5985    8.7912 H         1 UNK         0.3459 
    134 H134       33.4899   26.6559    5.3820 H         1 UNK         0.0616 
    135 H135       35.1274   26.1483    5.6433 H         1 UNK         0.0616 
    136 H136       33.2877   26.8552    1.5310 H         1 UNK         0.0634 
    137 H137       32.7350   27.7581    2.9155 H         1 UNK         0.0634 
@<TRIPOS>BOND
     1    1    2 1    
     2    1   72 1    
     3    1   73 1    
     4    1   74 1    
     5    2    3 2    
     6    2    4 am   BACKBONE|DICT|INTERRES
     7    4    5 1    
     8    4   75 1    
     9    5    6 1    
    10    5   35 1    
    11    5   76 1    
    12    6    7 1    
    13    6   77 1    
    14    6   78 1    
    15    7    8 1    
    16    8    9 1    
    17    8   79 1    
    18    8   80 1    
    19    9   10 ar   
    20    9   14 ar   
    21   10   11 ar   
    22   10   81 1    
    23   11   12 ar   
    24   11   71 1    
    25   12   13 ar   
    26   12   82 1    
    27   13   14 ar   
    28   13   15 1    
    29   14   83 1    
    30   15   16 1    
    31   15   84 1    
    32   15   85 1    
    33   16   17 1    
    34   17   18 1    
    35   17   86 1    
    36   17   87 1    
    37   18   19 1    
    38   18   37 1    
    39   18   88 1    
    40   19   20 am   BACKBONE|DICT|INTERRES
    41   19   89 1    
    42   20   21 2    
    43   20   22 1    
    44   22   23 1    
    45   22   24 1    
    46   22   90 1    
    47   23   91 1    
    48   23   92 1    
    49   23   93 1    
    50   24   25 am   BACKBONE|DICT|INTERRES
    51   24   94 1    
    52   25   26 2    
    53   25   27 1    
    54   27   28 1    
    55   27   29 1    
    56   27   95 1    
    57   28   96 1    
    58   28   97 1    
    59   28   98 1    
    60   29   30 am   BACKBONE|DICT|INTERRES
    61   29   99 1    
    62   30   31 2    
    63   30   32 1    
    64   32   33 1    
    65   32   34 1    
    66   32  100 1    
    67   33  101 1    
    68   33  102 1    
    69   33  103 1    
    70   34   35 am   BACKBONE|DICT|INTERRES
    71   34  104 1    
    72   35   36 2    
    73   37   38 2    
    74   37   39 am   BACKBONE|DICT|INTERRES
    75   39   40 1    
    76   39  105 1    
    77   40   41 1    
    78   40   42 1    
    79   40  106 1    
    80   41  107 1    
    81   41  108 1    
    82   41  109 1    
    83   42   43 2    
    84   42   44 am   BACKBONE|DICT|INTERRES
    85   44   45 1    
    86   44  110 1    
    87   45   46 1    
    88   45   47 1    
    89   45  111 1    
    90   46  112 1    
    91   46  113 1    
    92   46  114 1    
    93   47   48 2    
    94   47   49 am   BACKBONE|DICT|INTERRES
    95   49   50 1    
    96   49  115 1    
    97   50   51 1    
    98   50   52 1    
    99   50  116 1    
   100   51  117 1    
   101   51  118 1    
   102   51  119 1    
   103   52   53 2    
   104   52   54 am   BACKBONE|DICT|INTERRES
   105   54   55 1    
   106   54  120 1    
   107   55   56 1    
   108   55   57 1    
   109   55  121 1    
   110   56  122 1    
   111   56  123 1    
   112   56  124 1    
   113   57   58 2    
   114   57   59 am   BACKBONE|DICT|INTERRES
   115   59   60 1    
   116   59  125 1    
   117   60   61 1    
   118   60   62 1    
   119   60  126 1    
   120   61  127 1    
   121   61  128 1    
   122   61  129 1    
   123   62   63 2    
   124   62   64 am   BACKBONE|DICT|INTERRES
   125   64   65 1    
   126   64  130 1    
   127   65   66 1    
   128   65   69 1    
   129   65  131 1    
   130   66   67 am   BACKBONE|DICT|INTERRES
   131   66   68 2    
   132   67  132 1    
   133   67  133 1    
   134   69   70 1    
   135   69  134 1    
   136   69  135 1    
   137   70   71 1    
   138   71  136 1    
   139   71  137 1    
@<TRIPOS>SUBSTRUCTURE
     1 UNK         1 GROUP             0       ****    0 ROOT    
