@<TRIPOS>MOLECULE
3R136
137   139    1
SMALL
USER_CHARGES


@<TRIPOS>ATOM
      1 CA         32.3888   24.5535   -1.0331 C.3       0 UNK        -0.1979 
      2 C          31.1191   24.1142   -0.3212 C.2       0 UNK         0.4864 
      3 O          30.2365   24.9437   -0.0873 O.2       0 UNK        -0.5359 
      4 N          31.0173   22.8216    0.0211 N.am      1 UNK        -0.4318 
      5 CA         29.8929   22.2331    0.7562 C.3       1 UNK         0.0824 
      6 C6         30.1047   20.7379    1.1125 C.3       12 UNK        -0.0944 
      7 S7         31.7088   20.3636    1.9010 S.3       12 UNK        -0.2672 
      8 C8         31.3656   20.6619    3.6672 C.3       12 UNK         0.0333 
      9 C9         31.3510   22.1499    3.9839 C.ar      12 UNK        -0.0807 
     10 C10        32.5307   22.8927    3.8818 C.ar      12 UNK        -0.0894 
     11 C11        32.5239   24.2715    4.1052 C.ar      12 UNK        -0.0804 
     12 C12        31.3259   24.9097    4.4370 C.ar      12 UNK        -0.0824 
     13 C13        30.1406   24.1766    4.5452 C.ar      12 UNK        -0.0762 
     14 C14        30.1619   22.7926    4.3417 C.ar      12 UNK        -0.0782 
     15 C15        28.8251   24.8899    4.8050 C.3       12 UNK         0.0230 
     16 S16        27.9040   25.0139    3.2462 S.3       12 UNK        -0.2608 
     17 C17        26.7314   26.3678    3.5815 C.3       12 UNK        -0.0989 
     18 CA         27.2965   27.7797    3.2623 C.3       5 UNK         0.0716 
     19 N          28.1179   27.7949    2.0453 N.am      5 UNK        -0.4135 
     20 C          28.8450   28.8197    1.5806 C.2       4 UNK         0.5031 
     21 O          28.8761   29.9355    2.1003 O.2       4 UNK        -0.5229 
     22 CA         29.6781   28.5569    0.3170 C.3       4 UNK         0.0329 
     23 CB         31.1284   28.2186    0.6972 C.3       4 UNK        -0.2001 
     24 N          29.1337   27.4759   -0.5090 N.am      4 UNK        -0.4303 
     25 C          28.0237   27.5728   -1.2545 C.2       3 UNK         0.5044 
     26 O          27.3216   28.5828   -1.3084 O.2       3 UNK        -0.5152 
     27 CA         27.6094   26.3213   -2.0363 C.3       3 UNK         0.0319 
     28 CB         28.6467   25.9670   -3.1163 C.3       3 UNK        -0.2001 
     29 N          27.4439   25.1914   -1.1210 N.am      3 UNK        -0.4354 
     30 C          26.2744   24.5983   -0.8393 C.2       2 UNK         0.4964 
     31 O          25.2049   24.9386   -1.3470 O.2       2 UNK        -0.5047 
     32 CA         26.2632   23.4568    0.2004 C.3       2 UNK         0.0288 
     33 CB         25.4374   22.2415   -0.2738 C.3       2 UNK        -0.2113 
     34 N          27.5898   23.0485    0.6806 N.am      2 UNK        -0.4145 
     35 C          28.5621   22.4237    0.0015 C.2       1 UNK         0.5006 
     36 O          28.4617   22.0305   -1.1630 O.2       1 UNK        -0.5103 
     37 C          26.1449   28.8057    3.2262 C.2       5 UNK         0.5055 
     38 O          25.7294   29.2901    4.2790 O.2       5 UNK        -0.5220 
     39 N          25.6521   29.1110    2.0166 N.am      6 UNK        -0.4450 
     40 CA         24.6298   30.1258    1.7546 C.3       6 UNK         0.0367 
     41 CB         23.9965   29.8428    0.3821 C.3       6 UNK        -0.1929 
     42 C          25.1789   31.5646    1.8071 C.2       6 UNK         0.5070 
     43 O          24.3847   32.5041    1.8667 O.2       6 UNK        -0.5237 
     44 N          26.5084   31.7145    1.7677 N.am      7 UNK        -0.4739 
     45 CA         27.2296   32.9775    1.8654 C.3       7 UNK         0.0276 
     46 CB         28.1636   33.1072    0.6430 C.3       7 UNK        -0.1927 
     47 C          27.9513   33.0236    3.2244 C.2       7 UNK         0.5013 
     48 O          27.3175   32.7891    4.2550 O.2       7 UNK        -0.5193 
     49 N          29.2508   33.3429    3.2164 N.am      8 UNK        -0.4253 
     50 CA         30.0754   33.5233    4.4128 C.3       8 UNK         0.0242 
     51 CB         31.1882   34.5351    4.0833 C.3       8 UNK        -0.2000 
     52 C          30.6880   32.2228    4.9662 C.2       8 UNK         0.4948 
     53 O          31.3178   32.2871    6.0228 O.2       8 UNK        -0.5275 
     54 N          30.5498   31.0927    4.2488 N.am      9 UNK        -0.4246 
     55 CA         31.2323   29.8111    4.4966 C.3       9 UNK         0.0261 
     56 CB         30.7188   29.1421    5.7890 C.3       9 UNK        -0.1959 
     57 C          32.7672   29.9629    4.4540 C.2       9 UNK         0.5033 
     58 O          33.4713   29.4612    5.3325 O.2       9 UNK        -0.5390 
     59 N          33.2482   30.6821    3.4271 N.am      10 UNK        -0.4215 
     60 CA         34.6322   31.1415    3.2495 C.3       10 UNK         0.0240 
     61 CB         34.7138   31.9915    1.9706 C.3       10 UNK        -0.1982 
     62 C          35.7087   30.0405    3.2316 C.2       10 UNK         0.4970 
     63 O          36.8684   30.3362    3.5227 O.2       10 UNK        -0.4916 
     64 N          35.3151   28.8031    2.9097 N.am      11 UNK        -0.4279 
     65 CA         36.1442   27.5979    3.0417 C.3       11 UNK         0.1003 
     66 C          36.4796   27.1863    4.5071 C.2       11 UNK         0.5709 
     67 N          35.8108   27.7162    5.5256 N.am      11 UNK        -0.7358 
     68 O          37.3755   26.3735    4.7220 O.2       11 UNK        -0.4999 
     69 C69        35.5724   26.4131    2.2158 C.3       12 UNK        -0.0954 
     70 S70        33.7907   26.0896    2.4612 S.3       12 UNK        -0.2268 
     71 C71        33.8073   25.0718    3.9682 C.3       12 UNK         0.0203 
     72 H72        33.1068   23.7390   -1.1255 H         1 UNK         0.0888 
     73 H73        32.1520   24.9165   -2.0325 H         1 UNK         0.0888 
     74 H74        32.8642   25.3627   -0.4795 H         1 UNK         0.0888 
     75 H75        31.7668   22.1830   -0.2016 H         1 UNK         0.3017 
     76 H76        29.8283   22.7948    1.6874 H         1 UNK         0.0873 
     77 H77        29.3029   20.3857    1.7644 H         1 UNK         0.0745 
     78 H78        30.0455   20.1254    0.2104 H         1 UNK         0.0745 
     79 H79        32.1432   20.1810    4.2623 H         1 UNK         0.0705 
     80 H80        30.4254   20.1850    3.9483 H         1 UNK         0.0705 
     81 H81        33.4500   22.3966    3.6013 H         1 UNK         0.1334 
     82 H82        31.3149   25.9815    4.5793 H         1 UNK         0.1417 
     83 H83        29.2414   22.2286    4.4093 H         1 UNK         0.1562 
     84 H84        29.0027   25.8871    5.2111 H         1 UNK         0.0748 
     85 H85        28.2342   24.3462    5.5435 H         1 UNK         0.0748 
     86 H86        26.4024   26.3140    4.6212 H         1 UNK         0.0940 
     87 H87        25.8444   26.1621    2.9781 H         1 UNK         0.0940 
     88 H88        27.9571   28.0709    4.0814 H         1 UNK         0.0703 
     89 H89        28.1997   26.9080    1.5698 H         1 UNK         0.3081 
     90 H90        29.6809   29.4747   -0.2749 H         1 UNK         0.0719 
     91 H91        31.1828   27.3235    1.3189 H         1 UNK         0.0809 
     92 H92        31.7409   28.0453   -0.1878 H         1 UNK         0.0809 
     93 H93        31.5898   29.0353    1.2526 H         1 UNK         0.0809 
     94 H94        29.6281   26.5845   -0.4718 H         1 UNK         0.2990 
     95 H95        26.6699   26.5497   -2.5438 H         1 UNK         0.0690 
     96 H96        28.3157   25.1163   -3.7123 H         1 UNK         0.0788 
     97 H97        29.6174   25.7134   -2.6897 H         1 UNK         0.0788 
     98 H98        28.7983   26.8028   -3.8007 H         1 UNK         0.0788 
     99 H99        28.2854   24.8672   -0.6553 H         1 UNK         0.2993 
    100 H100       25.7546   23.8695    1.0732 H         1 UNK         0.0949 
    101 H101       25.8284   21.8189   -1.1997 H         1 UNK         0.0767 
    102 H102       25.4247   21.4521    0.4778 H         1 UNK         0.0767 
    103 H103       24.4005   22.5228   -0.4620 H         1 UNK         0.0767 
    104 H104       27.8048   23.3673    1.6183 H         1 UNK         0.3013 
    105 H105       26.0608   28.6669    1.2062 H         1 UNK         0.3121 
    106 H106       23.8518   30.0437    2.5168 H         1 UNK         0.0774 
    107 H107       23.2074   30.5625    0.1598 H         1 UNK         0.0815 
    108 H108       24.7315   29.9062   -0.4218 H         1 UNK         0.0815 
    109 H109       23.5465   28.8505    0.3486 H         1 UNK         0.0815 
    110 H110       27.0928   30.8864    1.7974 H         1 UNK         0.2987 
    111 H111       26.5342   33.8194    1.8514 H         1 UNK         0.0949 
    112 H112       28.6792   34.0683    0.6329 H         1 UNK         0.0806 
    113 H113       28.9152   32.3170    0.6141 H         1 UNK         0.0806 
    114 H114       27.5954   33.0481   -0.2857 H         1 UNK         0.0806 
    115 H115       29.6976   33.5099    2.3265 H         1 UNK         0.3010 
    116 H116       29.4585   33.9488    5.2075 H         1 UNK         0.0829 
    117 H117       30.7743   35.4853    3.7453 H         1 UNK         0.0813 
    118 H118       31.7990   34.7477    4.9619 H         1 UNK         0.0813 
    119 H119       31.8570   34.1632    3.3060 H         1 UNK         0.0813 
    120 H120       29.9571   31.1108    3.4246 H         1 UNK         0.3038 
    121 H121       30.9723   29.1500    3.6705 H         1 UNK         0.0769 
    122 H122       29.6348   29.0321    5.7741 H         1 UNK         0.0811 
    123 H123       30.9857   29.7152    6.6772 H         1 UNK         0.0811 
    124 H124       31.1457   28.1458    5.9084 H         1 UNK         0.0811 
    125 H125       32.5795   31.0441    2.7637 H         1 UNK         0.3204 
    126 H126       34.8606   31.7866    4.1003 H         1 UNK         0.0748 
    127 H127       35.7234   32.3767    1.8196 H         1 UNK         0.0771 
    128 H128       34.4504   31.4126    1.0843 H         1 UNK         0.0771 
    129 H129       34.0476   32.8531    2.0215 H         1 UNK         0.0771 
    130 H130       34.3430   28.6408    2.6961 H         1 UNK         0.2980 
    131 H131       37.1109   27.8413    2.5967 H         1 UNK         0.0545 
    132 H132       36.0506   27.4433    6.4646 H         1 UNK         0.3459 
    133 H133       35.0473   28.3697    5.3720 H         1 UNK         0.3459 
    134 H134       36.1396   25.4963    2.3867 H         1 UNK         0.0616 
    135 H135       35.7034   26.6333    1.1554 H         1 UNK         0.0616 
    136 H136       34.6715   24.4060    3.9546 H         1 UNK         0.0634 
    137 H137       33.9223   25.7163    4.8399 H         1 UNK         0.0634 
@<TRIPOS>BOND
     1    1    2 1    
     2    1   72 1    
     3    1   73 1    
     4    1   74 1    
     5    2    3 2    
     6    2    4 am   BACKBONE|DICT|INTERRES
     7    4    5 1    
     8    4   75 1    
     9    5    6 1    
    10    5   35 1    
    11    5   76 1    
    12    6    7 1    
    13    6   77 1    
    14    6   78 1    
    15    7    8 1    
    16    8    9 1    
    17    8   79 1    
    18    8   80 1    
    19    9   10 ar   
    20    9   14 ar   
    21   10   11 ar   
    22   10   81 1    
    23   11   12 ar   
    24   11   71 1    
    25   12   13 ar   
    26   12   82 1    
    27   13   14 ar   
    28   13   15 1    
    29   14   83 1    
    30   15   16 1    
    31   15   84 1    
    32   15   85 1    
    33   16   17 1    
    34   17   18 1    
    35   17   86 1    
    36   17   87 1    
    37   18   19 1    
    38   18   37 1    
    39   18   88 1    
    40   19   20 am   BACKBONE|DICT|INTERRES
    41   19   89 1    
    42   20   21 2    
    43   20   22 1    
    44   22   23 1    
    45   22   24 1    
    46   22   90 1    
    47   23   91 1    
    48   23   92 1    
    49   23   93 1    
    50   24   25 am   BACKBONE|DICT|INTERRES
    51   24   94 1    
    52   25   26 2    
    53   25   27 1    
    54   27   28 1    
    55   27   29 1    
    56   27   95 1    
    57   28   96 1    
    58   28   97 1    
    59   28   98 1    
    60   29   30 am   BACKBONE|DICT|INTERRES
    61   29   99 1    
    62   30   31 2    
    63   30   32 1    
    64   32   33 1    
    65   32   34 1    
    66   32  100 1    
    67   33  101 1    
    68   33  102 1    
    69   33  103 1    
    70   34   35 am   BACKBONE|DICT|INTERRES
    71   34  104 1    
    72   35   36 2    
    73   37   38 2    
    74   37   39 am   BACKBONE|DICT|INTERRES
    75   39   40 1    
    76   39  105 1    
    77   40   41 1    
    78   40   42 1    
    79   40  106 1    
    80   41  107 1    
    81   41  108 1    
    82   41  109 1    
    83   42   43 2    
    84   42   44 am   BACKBONE|DICT|INTERRES
    85   44   45 1    
    86   44  110 1    
    87   45   46 1    
    88   45   47 1    
    89   45  111 1    
    90   46  112 1    
    91   46  113 1    
    92   46  114 1    
    93   47   48 2    
    94   47   49 am   BACKBONE|DICT|INTERRES
    95   49   50 1    
    96   49  115 1    
    97   50   51 1    
    98   50   52 1    
    99   50  116 1    
   100   51  117 1    
   101   51  118 1    
   102   51  119 1    
   103   52   53 2    
   104   52   54 am   BACKBONE|DICT|INTERRES
   105   54   55 1    
   106   54  120 1    
   107   55   56 1    
   108   55   57 1    
   109   55  121 1    
   110   56  122 1    
   111   56  123 1    
   112   56  124 1    
   113   57   58 2    
   114   57   59 am   BACKBONE|DICT|INTERRES
   115   59   60 1    
   116   59  125 1    
   117   60   61 1    
   118   60   62 1    
   119   60  126 1    
   120   61  127 1    
   121   61  128 1    
   122   61  129 1    
   123   62   63 2    
   124   62   64 am   BACKBONE|DICT|INTERRES
   125   64   65 1    
   126   64  130 1    
   127   65   66 1    
   128   65   69 1    
   129   65  131 1    
   130   66   67 am   BACKBONE|DICT|INTERRES
   131   66   68 2    
   132   67  132 1    
   133   67  133 1    
   134   69   70 1    
   135   69  134 1    
   136   69  135 1    
   137   70   71 1    
   138   71  136 1    
   139   71  137 1    
@<TRIPOS>SUBSTRUCTURE
     1 UNK         1 GROUP             0       ****    0 ROOT    
