@<TRIPOS>MOLECULE
3R136
137   139    1
SMALL
USER_CHARGES


@<TRIPOS>ATOM
      1 CA         28.5118   20.1991    0.4709 C.3       0 UNK        -0.1979 
      2 C          28.7851   20.9533   -0.8224 C.2       0 UNK         0.4864 
      3 O          28.5023   20.4378   -1.9053 O.2       0 UNK        -0.5359 
      4 N          29.3391   22.1666   -0.7162 N.am      1 UNK        -0.4318 
      5 CA         29.5844   23.0847   -1.8310 C.3       1 UNK         0.0824 
      6 C6         30.6450   24.1596   -1.4679 C.3       12 UNK        -0.0944 
      7 S7         30.3158   25.0313    0.1060 S.3       12 UNK        -0.2672 
      8 C8         31.6302   24.3454    1.1620 C.3       12 UNK         0.0333 
      9 C9         31.3242   24.5671    2.6343 C.ar      12 UNK        -0.0807 
     10 C10        31.8970   25.6357    3.3309 C.ar      12 UNK        -0.0894 
     11 C11        31.6099   25.8325    4.6858 C.ar      12 UNK        -0.0804 
     12 C12        30.7485   24.9489    5.3450 C.ar      12 UNK        -0.0824 
     13 C13        30.1596   23.8859    4.6525 C.ar      12 UNK        -0.0762 
     14 C14        30.4613   23.6939    3.3018 C.ar      12 UNK        -0.0782 
     15 C15        29.1648   22.9650    5.3438 C.3       12 UNK         0.0230 
     16 S16        27.4646   23.2564    4.7499 S.3       12 UNK        -0.2608 
     17 C17        27.1339   24.9383    5.3776 C.3       12 UNK        -0.0989 
     18 CA         27.4813   26.0426    4.3480 C.3       5 UNK         0.0716 
     19 N          26.7274   25.9134    3.0988 N.am      5 UNK        -0.4135 
     20 C          26.9450   26.6446    1.9972 C.2       4 UNK         0.5031 
     21 O          27.7874   27.5431    1.9307 O.2       4 UNK        -0.5229 
     22 CA         26.0702   26.2829    0.7839 C.3       4 UNK         0.0329 
     23 CB         24.6240   26.7942    0.9522 C.3       4 UNK        -0.2001 
     24 N          26.6539   26.6953   -0.4991 N.am      4 UNK        -0.4303 
     25 C          26.7649   27.9280   -1.0232 C.2       3 UNK         0.5044 
     26 O          26.3075   28.9489   -0.5100 O.2       3 UNK        -0.5152 
     27 CA         27.4988   28.0614   -2.3743 C.3       3 UNK         0.0319 
     28 CB         28.8734   28.7209   -2.1827 C.3       3 UNK        -0.2001 
     29 N          27.6801   26.7914   -3.0805 N.am      3 UNK        -0.4354 
     30 C          26.7068   26.1100   -3.7014 C.2       2 UNK         0.4964 
     31 O          25.5529   26.5219   -3.8227 O.2       2 UNK        -0.5047 
     32 CA         27.0748   24.7243   -4.2666 C.3       2 UNK         0.0288 
     33 CB         27.3445   24.8152   -5.7777 C.3       2 UNK        -0.2113 
     34 N          28.2248   24.0880   -3.6092 N.am      2 UNK        -0.4145 
     35 C          28.2677   23.7243   -2.3187 C.2       1 UNK         0.5006 
     36 O          27.3424   23.9194   -1.5251 O.2       1 UNK        -0.5103 
     37 C          27.3195   27.4396    4.9729 C.2       5 UNK         0.5055 
     38 O          26.2178   27.9945    4.9590 O.2       5 UNK        -0.5220 
     39 N          28.4339   27.9805    5.4861 N.am      6 UNK        -0.4450 
     40 CA         28.6361   29.3312    6.0329 C.3       6 UNK         0.0367 
     41 CB         27.7021   29.6249    7.2229 C.3       6 UNK        -0.1929 
     42 C          28.5615   30.4417    4.9694 C.2       6 UNK         0.5070 
     43 O          29.4513   31.2909    4.9279 O.2       6 UNK        -0.5237 
     44 N          27.5459   30.3908    4.0977 N.am      7 UNK        -0.4739 
     45 CA         27.3294   31.2914    2.9597 C.3       7 UNK         0.0276 
     46 CB         26.0004   30.9271    2.2819 C.3       7 UNK        -0.1927 
     47 C          28.4843   31.2999    1.9395 C.2       7 UNK         0.5013 
     48 O          28.7224   32.3307    1.3093 O.2       7 UNK        -0.5193 
     49 N          29.2121   30.1784    1.8395 N.am      8 UNK        -0.4253 
     50 CA         30.4633   30.0314    1.0928 C.3       8 UNK         0.0242 
     51 CB         30.8898   28.5562    1.1334 C.3       8 UNK        -0.2000 
     52 C          31.6219   30.9180    1.5883 C.2       8 UNK         0.4948 
     53 O          32.5798   31.1009    0.8372 O.2       8 UNK        -0.5275 
     54 N          31.5560   31.4154    2.8350 N.am      9 UNK        -0.4246 
     55 CA         32.4916   32.3264    3.5184 C.3       9 UNK         0.0261 
     56 CB         32.5628   33.6838    2.7923 C.3       9 UNK        -0.1959 
     57 C          33.9083   31.7790    3.7897 C.2       9 UNK         0.5033 
     58 O          34.5586   32.2589    4.7194 O.2       9 UNK        -0.5390 
     59 N          34.3590   30.7860    3.0118 N.am      10 UNK        -0.4215 
     60 CA         35.6830   30.1516    3.0508 C.3       10 UNK         0.0240 
     61 CB         35.7311   29.0476    1.9814 C.3       10 UNK        -0.1982 
     62 C          36.1111   29.5842    4.4177 C.2       10 UNK         0.4970 
     63 O          37.3121   29.4874    4.6739 O.2       10 UNK        -0.4916 
     64 N          35.1373   29.2327    5.2658 N.am      11 UNK        -0.4279 
     65 CA         35.3521   28.8116    6.6582 C.3       11 UNK         0.1003 
     66 C          35.7601   29.9665    7.6215 C.2       11 UNK         0.5709 
     67 N          35.6530   31.2346    7.2396 N.am      11 UNK        -0.7358 
     68 O          36.1925   29.7028    8.7411 O.2       11 UNK        -0.4999 
     69 C69        34.1324   28.0335    7.2162 C.3       12 UNK        -0.0954 
     70 S70        33.7601   26.5221    6.2651 S.3       12 UNK        -0.2268 
     71 C71        32.2176   27.0056    5.4373 C.3       12 UNK         0.0203 
     72 H72        28.8013   20.7760    1.3492 H         1 UNK         0.0888 
     73 H73        27.4498   19.9691    0.5529 H         1 UNK         0.0888 
     74 H74        29.0663   19.2612    0.4831 H         1 UNK         0.0888 
     75 H75        29.5001   22.5654    0.1967 H         1 UNK         0.3017 
     76 H76        29.9835   22.4953   -2.6597 H         1 UNK         0.0873 
     77 H77        31.6272   23.6877   -1.4140 H         1 UNK         0.0745 
     78 H78        30.7349   24.9042   -2.2610 H         1 UNK         0.0745 
     79 H79        31.7375   23.2759    0.9741 H         1 UNK         0.0705 
     80 H80        32.5833   24.8033    0.8926 H         1 UNK         0.0705 
     81 H81        32.5655   26.3139    2.8183 H         1 UNK         0.1334 
     82 H82        30.5241   25.0995    6.3924 H         1 UNK         0.1417 
     83 H83        30.0021   22.8754    2.7651 H         1 UNK         0.1562 
     84 H84        29.2009   23.0881    6.4274 H         1 UNK         0.0748 
     85 H85        29.4363   21.9273    5.1449 H         1 UNK         0.0748 
     86 H86        27.6926   25.0808    6.3049 H         1 UNK         0.0940 
     87 H87        26.0792   24.9967    5.6541 H         1 UNK         0.0940 
     88 H88        28.5280   25.9388    4.0634 H         1 UNK         0.0703 
     89 H89        26.0126   25.2017    3.0864 H         1 UNK         0.3081 
     90 H90        26.0328   25.1934    0.7344 H         1 UNK         0.0719 
     91 H91        24.5876   27.8720    1.1126 H         1 UNK         0.0809 
     92 H92        24.0168   26.5636    0.0768 H         1 UNK         0.0809 
     93 H93        24.1414   26.3286    1.8120 H         1 UNK         0.0809 
     94 H94        27.0720   25.9315   -1.0183 H         1 UNK         0.2990 
     95 H95        26.8943   28.7177   -3.0041 H         1 UNK         0.0690 
     96 H96        29.3606   28.9106   -3.1393 H         1 UNK         0.0788 
     97 H97        29.5384   28.0987   -1.5835 H         1 UNK         0.0788 
     98 H98        28.7735   29.6815   -1.6762 H         1 UNK         0.0788 
     99 H99        28.6012   26.3812   -3.0433 H         1 UNK         0.2993 
    100 H100       26.2086   24.0773   -4.1112 H         1 UNK         0.0949 
    101 H101       27.5097   23.8290   -6.2123 H         1 UNK         0.0767 
    102 H102       26.4951   25.2581   -6.3002 H         1 UNK         0.0767 
    103 H103       28.2181   25.4309   -5.9960 H         1 UNK         0.0767 
    104 H104       29.0265   23.9007   -4.1949 H         1 UNK         0.3013 
    105 H105       29.2786   27.4321    5.4118 H         1 UNK         0.3121 
    106 H106       29.6575   29.3402    6.4175 H         1 UNK         0.0774 
    107 H107       27.9545   30.5805    7.6844 H         1 UNK         0.0815 
    108 H108       26.6556   29.6812    6.9226 H         1 UNK         0.0815 
    109 H109       27.7895   28.8597    7.9940 H         1 UNK         0.0815 
    110 H110       26.8771   29.6342    4.2185 H         1 UNK         0.2987 
    111 H111       27.2469   32.3055    3.3560 H         1 UNK         0.0949 
    112 H112       25.9934   29.8867    1.9554 H         1 UNK         0.0806 
    113 H113       25.1572   31.0710    2.9574 H         1 UNK         0.0806 
    114 H114       25.8228   31.5467    1.4018 H         1 UNK         0.0806 
    115 H115       28.8544   29.3432    2.2912 H         1 UNK         0.3010 
    116 H116       30.2667   30.3115    0.0571 H         1 UNK         0.0829 
    117 H117       30.1193   27.9128    0.7116 H         1 UNK         0.0813 
    118 H118       31.8008   28.3878    0.5574 H         1 UNK         0.0813 
    119 H119       31.0765   28.2208    2.1537 H         1 UNK         0.0813 
    120 H120       30.7313   31.1914    3.3850 H         1 UNK         0.3038 
    121 H121       32.0485   32.5056    4.4995 H         1 UNK         0.0769 
    122 H122       31.5711   34.1202    2.6719 H         1 UNK         0.0811 
    123 H123       33.0122   33.5939    1.8029 H         1 UNK         0.0811 
    124 H124       33.1644   34.3972    3.3573 H         1 UNK         0.0811 
    125 H125       33.7721   30.5568    2.2144 H         1 UNK         0.3204 
    126 H126       36.4109   30.9202    2.7839 H         1 UNK         0.0748 
    127 H127       35.5386   29.4494    0.9862 H         1 UNK         0.0771 
    128 H128       36.7124   28.5715    1.9521 H         1 UNK         0.0771 
    129 H129       34.9947   28.2665    2.1762 H         1 UNK         0.0771 
    130 H130       34.1805   29.3577    4.9772 H         1 UNK         0.2980 
    131 H131       36.1987   28.1221    6.6576 H         1 UNK         0.0545 
    132 H132       35.2962   31.4834    6.3213 H         1 UNK         0.3459 
    133 H133       35.9281   31.9623    7.8793 H         1 UNK         0.3459 
    134 H134       33.2525   28.6781    7.2544 H         1 UNK         0.0616 
    135 H135       34.3199   27.7203    8.2450 H         1 UNK         0.0616 
    136 H136       32.4138   27.8337    4.7545 H         1 UNK         0.0634 
    137 H137       31.5102   27.3749    6.1811 H         1 UNK         0.0634 
@<TRIPOS>BOND
     1    1    2 1    
     2    1   72 1    
     3    1   73 1    
     4    1   74 1    
     5    2    3 2    
     6    2    4 am   BACKBONE|DICT|INTERRES
     7    4    5 1    
     8    4   75 1    
     9    5    6 1    
    10    5   35 1    
    11    5   76 1    
    12    6    7 1    
    13    6   77 1    
    14    6   78 1    
    15    7    8 1    
    16    8    9 1    
    17    8   79 1    
    18    8   80 1    
    19    9   10 ar   
    20    9   14 ar   
    21   10   11 ar   
    22   10   81 1    
    23   11   12 ar   
    24   11   71 1    
    25   12   13 ar   
    26   12   82 1    
    27   13   14 ar   
    28   13   15 1    
    29   14   83 1    
    30   15   16 1    
    31   15   84 1    
    32   15   85 1    
    33   16   17 1    
    34   17   18 1    
    35   17   86 1    
    36   17   87 1    
    37   18   19 1    
    38   18   37 1    
    39   18   88 1    
    40   19   20 am   BACKBONE|DICT|INTERRES
    41   19   89 1    
    42   20   21 2    
    43   20   22 1    
    44   22   23 1    
    45   22   24 1    
    46   22   90 1    
    47   23   91 1    
    48   23   92 1    
    49   23   93 1    
    50   24   25 am   BACKBONE|DICT|INTERRES
    51   24   94 1    
    52   25   26 2    
    53   25   27 1    
    54   27   28 1    
    55   27   29 1    
    56   27   95 1    
    57   28   96 1    
    58   28   97 1    
    59   28   98 1    
    60   29   30 am   BACKBONE|DICT|INTERRES
    61   29   99 1    
    62   30   31 2    
    63   30   32 1    
    64   32   33 1    
    65   32   34 1    
    66   32  100 1    
    67   33  101 1    
    68   33  102 1    
    69   33  103 1    
    70   34   35 am   BACKBONE|DICT|INTERRES
    71   34  104 1    
    72   35   36 2    
    73   37   38 2    
    74   37   39 am   BACKBONE|DICT|INTERRES
    75   39   40 1    
    76   39  105 1    
    77   40   41 1    
    78   40   42 1    
    79   40  106 1    
    80   41  107 1    
    81   41  108 1    
    82   41  109 1    
    83   42   43 2    
    84   42   44 am   BACKBONE|DICT|INTERRES
    85   44   45 1    
    86   44  110 1    
    87   45   46 1    
    88   45   47 1    
    89   45  111 1    
    90   46  112 1    
    91   46  113 1    
    92   46  114 1    
    93   47   48 2    
    94   47   49 am   BACKBONE|DICT|INTERRES
    95   49   50 1    
    96   49  115 1    
    97   50   51 1    
    98   50   52 1    
    99   50  116 1    
   100   51  117 1    
   101   51  118 1    
   102   51  119 1    
   103   52   53 2    
   104   52   54 am   BACKBONE|DICT|INTERRES
   105   54   55 1    
   106   54  120 1    
   107   55   56 1    
   108   55   57 1    
   109   55  121 1    
   110   56  122 1    
   111   56  123 1    
   112   56  124 1    
   113   57   58 2    
   114   57   59 am   BACKBONE|DICT|INTERRES
   115   59   60 1    
   116   59  125 1    
   117   60   61 1    
   118   60   62 1    
   119   60  126 1    
   120   61  127 1    
   121   61  128 1    
   122   61  129 1    
   123   62   63 2    
   124   62   64 am   BACKBONE|DICT|INTERRES
   125   64   65 1    
   126   64  130 1    
   127   65   66 1    
   128   65   69 1    
   129   65  131 1    
   130   66   67 am   BACKBONE|DICT|INTERRES
   131   66   68 2    
   132   67  132 1    
   133   67  133 1    
   134   69   70 1    
   135   69  134 1    
   136   69  135 1    
   137   70   71 1    
   138   71  136 1    
   139   71  137 1    
@<TRIPOS>SUBSTRUCTURE
     1 UNK         1 GROUP             0       ****    0 ROOT    
