@<TRIPOS>MOLECULE
3R136
137   139    1
SMALL
USER_CHARGES


@<TRIPOS>ATOM
      1 CA         24.6114   21.6998    2.6909 C.3       0 UNK        -0.1979 
      2 C          25.7646   22.3809    1.9703 C.2       0 UNK         0.4864 
      3 O          25.5478   23.0069    0.9335 O.2       0 UNK        -0.5359 
      4 N          26.9841   22.2754    2.5179 N.am      1 UNK        -0.4318 
      5 CA         28.2245   22.8471    1.9762 C.3       1 UNK         0.0824 
      6 C6         29.4401   22.4372    2.8504 C.3       12 UNK        -0.0944 
      7 S7         31.0588   22.8526    2.1176 S.3       12 UNK        -0.2672 
      8 C8         31.4824   24.3489    3.0749 C.3       12 UNK         0.0333 
      9 C9         32.3274   25.3513    2.2977 C.ar      12 UNK        -0.0807 
     10 C10        33.3684   26.0309    2.9374 C.ar      12 UNK        -0.0894 
     11 C11        34.1089   27.0069    2.2599 C.ar      12 UNK        -0.0804 
     12 C12        33.7959   27.3020    0.9293 C.ar      12 UNK        -0.0824 
     13 C13        32.7542   26.6350    0.2787 C.ar      12 UNK        -0.0762 
     14 C14        32.0304   25.6576    0.9659 C.ar      12 UNK        -0.0782 
     15 C15        32.4040   26.9829   -1.1610 C.3       12 UNK         0.0230 
     16 S16        31.3101   28.4368   -1.2512 S.3       12 UNK        -0.2608 
     17 C17        29.7067   27.7381   -0.7294 C.3       12 UNK        -0.0989 
     18 CA         28.6951   27.6337   -1.8993 C.3       5 UNK         0.0716 
     19 N          27.7615   26.5191   -1.7042 N.am      5 UNK        -0.4135 
     20 C          26.9485   26.0304   -2.6519 C.2       4 UNK         0.5031 
     21 O          26.9437   26.4180   -3.8211 O.2       4 UNK        -0.5229 
     22 CA         25.9583   24.9346   -2.2207 C.3       4 UNK         0.0329 
     23 CB         26.6353   23.5546   -2.2242 C.3       4 UNK        -0.2001 
     24 N          25.3693   25.1915   -0.9045 N.am      4 UNK        -0.4303 
     25 C          24.5498   26.2148   -0.6212 C.2       3 UNK         0.5044 
     26 O          24.1366   27.0178   -1.4577 O.2       3 UNK        -0.5152 
     27 CA         24.1564   26.4009    0.8537 C.3       3 UNK         0.0319 
     28 CB         22.9907   25.4745    1.2357 C.3       3 UNK        -0.2001 
     29 N          25.2831   26.1875    1.7656 N.am      3 UNK        -0.4354 
     30 C          26.3645   26.9786    1.8330 C.2       2 UNK         0.4964 
     31 O          26.5132   27.9897    1.1473 O.2       2 UNK        -0.5047 
     32 CA         27.4856   26.5438    2.7926 C.3       2 UNK         0.0288 
     33 CB         27.2123   27.0490    4.2185 C.3       2 UNK        -0.2113 
     34 N          27.6844   25.0921    2.8172 N.am      2 UNK        -0.4145 
     35 C          28.1267   24.3760    1.7726 C.2       1 UNK         0.5006 
     36 O          28.4088   24.8689    0.6784 O.2       1 UNK        -0.5103 
     37 C          27.9711   28.9796   -2.1172 C.2       5 UNK         0.5055 
     38 O          28.4469   29.8028   -2.9006 O.2       5 UNK        -0.5220 
     39 N          26.8543   29.1759   -1.3985 N.am      6 UNK        -0.4450 
     40 CA         26.1189   30.4317   -1.2135 C.3       6 UNK         0.0367 
     41 CB         25.5392   30.9613   -2.5424 C.3       6 UNK        -0.1929 
     42 C          26.9703   31.4667   -0.4511 C.2       6 UNK         0.5070 
     43 O          26.9536   32.6541   -0.7804 O.2       6 UNK        -0.5237 
     44 N          27.7113   30.9848    0.5533 N.am      7 UNK        -0.4739 
     45 CA         28.6407   31.7384    1.3886 C.3       7 UNK         0.0276 
     46 CB         29.9594   31.9739    0.6284 C.3       7 UNK        -0.1927 
     47 C          28.8884   30.9351    2.6699 C.2       7 UNK         0.5013 
     48 O          28.7133   29.7148    2.6631 O.2       7 UNK        -0.5193 
     49 N          29.2935   31.6243    3.7435 N.am      8 UNK        -0.4253 
     50 CA         29.5992   31.0170    5.0405 C.3       8 UNK         0.0242 
     51 CB         29.7804   32.1246    6.0915 C.3       8 UNK        -0.2000 
     52 C          30.8547   30.1328    4.9765 C.2       8 UNK         0.4948 
     53 O          31.8586   30.5356    4.3820 O.2       8 UNK        -0.5275 
     54 N          30.8013   28.9712    5.6398 N.am      9 UNK        -0.4246 
     55 CA         31.8929   27.9976    5.7314 C.3       9 UNK         0.0261 
     56 CB         31.2977   26.6144    6.0550 C.3       9 UNK        -0.1959 
     57 C          32.9714   28.4343    6.7442 C.2       9 UNK         0.5033 
     58 O          33.2324   27.7267    7.7182 O.2       9 UNK        -0.5390 
     59 N          33.5558   29.6151    6.5103 N.am      10 UNK        -0.4215 
     60 CA         34.5478   30.2555    7.3785 C.3       10 UNK         0.0240 
     61 CB         34.5736   31.7615    7.0683 C.3       10 UNK        -0.1982 
     62 C          35.9624   29.6582    7.2619 C.2       10 UNK         0.4970 
     63 O          36.7817   29.8912    8.1519 O.2       10 UNK        -0.4916 
     64 N          36.2372   28.9356    6.1690 N.am      11 UNK        -0.4279 
     65 CA         37.5210   28.2786    5.8903 C.3       11 UNK         0.1003 
     66 C          37.8396   27.0883    6.8410 C.2       11 UNK         0.5709 
     67 N          39.1080   26.7194    6.9629 N.am      11 UNK        -0.7358 
     68 O          36.9571   26.4833    7.4475 O.2       11 UNK        -0.4999 
     69 C69        37.6490   27.9031    4.3888 C.3       12 UNK        -0.0954 
     70 S70        36.4168   26.6930    3.7924 S.3       12 UNK        -0.2268 
     71 C71        35.2122   27.7829    2.9691 C.3       12 UNK         0.0203 
     72 H72        24.1395   20.9705    2.0331 H         1 UNK         0.0888 
     73 H73        24.9405   21.1819    3.5915 H         1 UNK         0.0888 
     74 H74        23.8609   22.4361    2.9768 H         1 UNK         0.0888 
     75 H75        27.0870   21.7420    3.3697 H         1 UNK         0.3017 
     76 H76        28.3606   22.4074    0.9857 H         1 UNK         0.0873 
     77 H77        29.3643   22.8603    3.8538 H         1 UNK         0.0745 
     78 H78        29.4338   21.3550    2.9908 H         1 UNK         0.0745 
     79 H79        31.9888   24.0405    3.9909 H         1 UNK         0.0705 
     80 H80        30.5718   24.8627    3.3818 H         1 UNK         0.0705 
     81 H81        33.5958   25.8126    3.9717 H         1 UNK         0.1334 
     82 H82        34.3494   28.0662    0.4004 H         1 UNK         0.1417 
     83 H83        31.2201   25.1420    0.4694 H         1 UNK         0.1562 
     84 H84        31.9336   26.1356   -1.6628 H         1 UNK         0.0748 
     85 H85        33.3179   27.1956   -1.7177 H         1 UNK         0.0748 
     86 H86        29.3128   28.3263    0.1028 H         1 UNK         0.0940 
     87 H87        29.8848   26.7507   -0.3125 H         1 UNK         0.0940 
     88 H88        29.2482   27.4106   -2.8147 H         1 UNK         0.0703 
     89 H89        27.7547   26.0818   -0.7876 H         1 UNK         0.3081 
     90 H90        25.1460   24.9161   -2.9503 H         1 UNK         0.0719 
     91 H91        25.9215   22.7640   -1.9917 H         1 UNK         0.0809 
     92 H92        27.0618   23.3305   -3.2028 H         1 UNK         0.0809 
     93 H93        27.4430   23.4976   -1.4937 H         1 UNK         0.0809 
     94 H94        25.5962   24.5291   -0.1649 H         1 UNK         0.2990 
     95 H95        23.8208   27.4329    0.9777 H         1 UNK         0.0690 
     96 H96        22.1282   25.6515    0.5917 H         1 UNK         0.0788 
     97 H97        22.6673   25.6456    2.2625 H         1 UNK         0.0788 
     98 H98        23.2571   24.4218    1.1378 H         1 UNK         0.0788 
     99 H99        25.2578   25.3543    2.3340 H         1 UNK         0.2993 
    100 H100       28.4122   27.0032    2.4397 H         1 UNK         0.0949 
    101 H101       26.3155   26.5984    4.6453 H         1 UNK         0.0767 
    102 H102       28.0491   26.8319    4.8823 H         1 UNK         0.0767 
    103 H103       27.0693   28.1306    4.2256 H         1 UNK         0.0767 
    104 H104       27.4542   24.6107    3.6742 H         1 UNK         0.3013 
    105 H105       26.5994   28.4503   -0.7342 H         1 UNK         0.3121 
    106 H106       25.2773   30.1918   -0.5619 H         1 UNK         0.0774 
    107 H107       26.3195   31.3069   -3.2206 H         1 UNK         0.0815 
    108 H108       24.8712   31.8046   -2.3643 H         1 UNK         0.0815 
    109 H109       24.9620   30.1924   -3.0559 H         1 UNK         0.0815 
    110 H110       27.6196   30.0080    0.8184 H         1 UNK         0.2987 
    111 H111       28.1867   32.6956    1.6543 H         1 UNK         0.0949 
    112 H112       30.4283   31.0318    0.3411 H         1 UNK         0.0806 
    113 H113       29.7998   32.5568   -0.2787 H         1 UNK         0.0806 
    114 H114       30.6758   32.5209    1.2425 H         1 UNK         0.0806 
    115 H115       29.4563   32.6170    3.6579 H         1 UNK         0.3010 
    116 H116       28.7455   30.3997    5.3301 H         1 UNK         0.0829 
    117 H117       29.9849   31.7004    7.0756 H         1 UNK         0.0813 
    118 H118       30.6131   32.7844    5.8433 H         1 UNK         0.0813 
    119 H119       28.8826   32.7361    6.1845 H         1 UNK         0.0813 
    120 H120       29.9574   28.7410    6.1445 H         1 UNK         0.3038 
    121 H121       32.3751   27.9327    4.7547 H         1 UNK         0.0769 
    122 H122       30.8041   26.6039    7.0275 H         1 UNK         0.0811 
    123 H123       32.0745   25.8490    6.0759 H         1 UNK         0.0811 
    124 H124       30.5658   26.3140    5.3060 H         1 UNK         0.0811 
    125 H125       33.2318   30.1397    5.7006 H         1 UNK         0.3204 
    126 H126       34.2286   30.1281    8.4152 H         1 UNK         0.0748 
    127 H127       33.5938   32.2149    7.2216 H         1 UNK         0.0771 
    128 H128       35.2758   32.2842    7.7194 H         1 UNK         0.0771 
    129 H129       34.8759   31.9565    6.0385 H         1 UNK         0.0771 
    130 H130       35.4952   28.7550    5.5131 H         1 UNK         0.2980 
    131 H131       38.2888   29.0295    6.0881 H         1 UNK         0.0545 
    132 H132       39.3358   25.9443    7.5658 H         1 UNK         0.3459 
    133 H133       39.8421   27.1994    6.4659 H         1 UNK         0.3459 
    134 H134       37.5876   28.8065    3.7803 H         1 UNK         0.0616 
    135 H135       38.6403   27.4929    4.1888 H         1 UNK         0.0616 
    136 H136       34.7571   28.4482    3.7028 H         1 UNK         0.0634 
    137 H137       35.7455   28.4181    2.2600 H         1 UNK         0.0634 
@<TRIPOS>BOND
     1    1    2 1    
     2    1   72 1    
     3    1   73 1    
     4    1   74 1    
     5    2    3 2    
     6    2    4 am   BACKBONE|DICT|INTERRES
     7    4    5 1    
     8    4   75 1    
     9    5    6 1    
    10    5   35 1    
    11    5   76 1    
    12    6    7 1    
    13    6   77 1    
    14    6   78 1    
    15    7    8 1    
    16    8    9 1    
    17    8   79 1    
    18    8   80 1    
    19    9   10 ar   
    20    9   14 ar   
    21   10   11 ar   
    22   10   81 1    
    23   11   12 ar   
    24   11   71 1    
    25   12   13 ar   
    26   12   82 1    
    27   13   14 ar   
    28   13   15 1    
    29   14   83 1    
    30   15   16 1    
    31   15   84 1    
    32   15   85 1    
    33   16   17 1    
    34   17   18 1    
    35   17   86 1    
    36   17   87 1    
    37   18   19 1    
    38   18   37 1    
    39   18   88 1    
    40   19   20 am   BACKBONE|DICT|INTERRES
    41   19   89 1    
    42   20   21 2    
    43   20   22 1    
    44   22   23 1    
    45   22   24 1    
    46   22   90 1    
    47   23   91 1    
    48   23   92 1    
    49   23   93 1    
    50   24   25 am   BACKBONE|DICT|INTERRES
    51   24   94 1    
    52   25   26 2    
    53   25   27 1    
    54   27   28 1    
    55   27   29 1    
    56   27   95 1    
    57   28   96 1    
    58   28   97 1    
    59   28   98 1    
    60   29   30 am   BACKBONE|DICT|INTERRES
    61   29   99 1    
    62   30   31 2    
    63   30   32 1    
    64   32   33 1    
    65   32   34 1    
    66   32  100 1    
    67   33  101 1    
    68   33  102 1    
    69   33  103 1    
    70   34   35 am   BACKBONE|DICT|INTERRES
    71   34  104 1    
    72   35   36 2    
    73   37   38 2    
    74   37   39 am   BACKBONE|DICT|INTERRES
    75   39   40 1    
    76   39  105 1    
    77   40   41 1    
    78   40   42 1    
    79   40  106 1    
    80   41  107 1    
    81   41  108 1    
    82   41  109 1    
    83   42   43 2    
    84   42   44 am   BACKBONE|DICT|INTERRES
    85   44   45 1    
    86   44  110 1    
    87   45   46 1    
    88   45   47 1    
    89   45  111 1    
    90   46  112 1    
    91   46  113 1    
    92   46  114 1    
    93   47   48 2    
    94   47   49 am   BACKBONE|DICT|INTERRES
    95   49   50 1    
    96   49  115 1    
    97   50   51 1    
    98   50   52 1    
    99   50  116 1    
   100   51  117 1    
   101   51  118 1    
   102   51  119 1    
   103   52   53 2    
   104   52   54 am   BACKBONE|DICT|INTERRES
   105   54   55 1    
   106   54  120 1    
   107   55   56 1    
   108   55   57 1    
   109   55  121 1    
   110   56  122 1    
   111   56  123 1    
   112   56  124 1    
   113   57   58 2    
   114   57   59 am   BACKBONE|DICT|INTERRES
   115   59   60 1    
   116   59  125 1    
   117   60   61 1    
   118   60   62 1    
   119   60  126 1    
   120   61  127 1    
   121   61  128 1    
   122   61  129 1    
   123   62   63 2    
   124   62   64 am   BACKBONE|DICT|INTERRES
   125   64   65 1    
   126   64  130 1    
   127   65   66 1    
   128   65   69 1    
   129   65  131 1    
   130   66   67 am   BACKBONE|DICT|INTERRES
   131   66   68 2    
   132   67  132 1    
   133   67  133 1    
   134   69   70 1    
   135   69  134 1    
   136   69  135 1    
   137   70   71 1    
   138   71  136 1    
   139   71  137 1    
@<TRIPOS>SUBSTRUCTURE
     1 UNK         1 GROUP             0       ****    0 ROOT    
