@<TRIPOS>MOLECULE
3R136
137   139    1
SMALL
USER_CHARGES


@<TRIPOS>ATOM
      1 CA         28.3656   28.1812   -1.2340 C.3       0 UNK        -0.1979 
      2 C          28.7249   26.7267   -1.4973 C.2       0 UNK         0.4864 
      3 O          28.9036   26.3383   -2.6527 O.2       0 UNK        -0.5359 
      4 N          28.7981   25.9193   -0.4317 N.am      1 UNK        -0.4318 
      5 CA         29.0985   24.4821   -0.3899 C.3       1 UNK         0.0824 
      6 C6         30.4477   24.0694   -1.0375 C.3       12 UNK        -0.0944 
      7 S7         31.8803   24.9675   -0.3553 S.3       12 UNK        -0.2672 
      8 C8         32.6489   23.7034    0.7026 C.3       12 UNK         0.0333 
      9 C9         32.0595   23.7057    2.1045 C.ar      12 UNK        -0.0807 
     10 C10        32.5049   24.6500    3.0328 C.ar      12 UNK        -0.0894 
     11 C11        32.0258   24.6380    4.3440 C.ar      12 UNK        -0.0804 
     12 C12        31.0942   23.6712    4.7276 C.ar      12 UNK        -0.0824 
     13 C13        30.6282   22.7270    3.8056 C.ar      12 UNK        -0.0762 
     14 C14        31.1117   22.7513    2.4919 C.ar      12 UNK        -0.0782 
     15 C15        29.6404   21.6527    4.2455 C.3       12 UNK         0.0230 
     16 S16        27.9095   22.0924    3.8811 S.3       12 UNK        -0.2608 
     17 C17        27.6577   23.5542    4.9445 C.3       12 UNK        -0.0989 
     18 CA         27.5701   24.8423    4.0886 C.3       5 UNK         0.0716 
     19 N          26.3045   24.8958    3.3453 N.am      5 UNK        -0.4135 
     20 C          26.0884   25.5950    2.2271 C.2       4 UNK         0.5031 
     21 O          26.9571   26.2676    1.6617 O.2       4 UNK        -0.5229 
     22 CA         24.6544   25.6128    1.6938 C.3       4 UNK         0.0329 
     23 CB         23.8582   26.7436    2.3763 C.3       4 UNK        -0.2001 
     24 N          24.7158   25.8172    0.2509 N.am      4 UNK        -0.4303 
     25 C          23.7000   25.7191   -0.6141 C.2       3 UNK         0.5044 
     26 O          22.5397   25.4565   -0.2958 O.2       3 UNK        -0.5152 
     27 CA         24.0521   25.9300   -2.0957 C.3       3 UNK         0.0319 
     28 CB         24.3054   27.4171   -2.3950 C.3       3 UNK        -0.2001 
     29 N          25.2188   25.1400   -2.4949 N.am      3 UNK        -0.4354 
     30 C          25.2159   23.8063   -2.6424 C.2       2 UNK         0.4964 
     31 O          24.2123   23.1022   -2.5283 O.2       2 UNK        -0.5047 
     32 CA         26.5652   23.1450   -2.9641 C.3       2 UNK         0.0288 
     33 CB         26.8385   23.1704   -4.4767 C.3       2 UNK        -0.2113 
     34 N          27.6747   23.7861   -2.2577 N.am      2 UNK        -0.4145 
     35 C          27.9281   23.6536   -0.9489 C.2       1 UNK         0.5006 
     36 O          27.2741   22.9346   -0.1929 O.2       1 UNK        -0.5103 
     37 C          27.7794   26.1378    4.9062 C.2       5 UNK         0.5055 
     38 O          27.8770   26.1004    6.1340 O.2       5 UNK        -0.5220 
     39 N          27.8159   27.2642    4.1904 N.am      6 UNK        -0.4450 
     40 CA         28.0032   28.6235    4.6786 C.3       6 UNK         0.0367 
     41 CB         26.6867   29.1669    5.2698 C.3       6 UNK        -0.1929 
     42 C          28.5282   29.4508    3.4982 C.2       6 UNK         0.5070 
     43 O          27.8511   30.3642    3.0230 O.2       6 UNK        -0.5237 
     44 N          29.7054   29.0551    2.9988 N.am      7 UNK        -0.4739 
     45 CA         30.4061   29.6902    1.8811 C.3       7 UNK         0.0276 
     46 CB         31.4795   28.7139    1.3651 C.3       7 UNK        -0.1927 
     47 C          31.0079   31.0600    2.2578 C.2       7 UNK         0.5013 
     48 O          30.9933   31.4488    3.4288 O.2       7 UNK        -0.5193 
     49 N          31.5258   31.7682    1.2448 N.am      8 UNK        -0.4253 
     50 CA         32.1533   33.0886    1.3639 C.3       8 UNK         0.0242 
     51 CB         32.5076   33.5969   -0.0437 C.3       8 UNK        -0.2000 
     52 C          33.4042   33.0918    2.2621 C.2       8 UNK         0.4948 
     53 O          34.0763   32.0642    2.3865 O.2       8 UNK        -0.5275 
     54 N          33.6996   34.2631    2.8455 N.am      9 UNK        -0.4246 
     55 CA         34.7745   34.5163    3.8137 C.3       9 UNK         0.0261 
     56 CB         36.1633   34.3773    3.1463 C.3       9 UNK        -0.1959 
     57 C          34.5848   33.6601    5.0821 C.2       9 UNK         0.5033 
     58 O          33.4614   33.5722    5.5823 O.2       9 UNK        -0.5390 
     59 N          35.6529   33.0207    5.5736 N.am      10 UNK        -0.4215 
     60 CA         35.6292   32.0896    6.7064 C.3       10 UNK         0.0240 
     61 CB         37.0035   32.1199    7.4030 C.3       10 UNK        -0.1982 
     62 C          35.2133   30.6688    6.2679 C.2       10 UNK         0.4970 
     63 O          35.8821   29.6988    6.6287 O.2       10 UNK        -0.4916 
     64 N          34.1296   30.5757    5.4855 N.am      11 UNK        -0.4279 
     65 CA         33.6164   29.3543    4.8507 C.3       11 UNK         0.1003 
     66 C          34.6415   28.7235    3.8612 C.2       11 UNK         0.5709 
     67 N          35.0893   29.4782    2.8664 N.am      11 UNK        -0.7358 
     68 O          35.0456   27.5705    3.9866 O.2       11 UNK        -0.4999 
     69 C69        32.9950   28.3695    5.8826 C.3       12 UNK        -0.0954 
     70 S70        31.7495   27.2682    5.1298 S.3       12 UNK        -0.2268 
     71 C71        32.5506   25.6509    5.3464 C.3       12 UNK         0.0203 
     72 H72        27.5883   28.5101   -1.9228 H         1 UNK         0.0888 
     73 H73        28.0023   28.3319   -0.2169 H         1 UNK         0.0888 
     74 H74        29.2408   28.8128   -1.3824 H         1 UNK         0.0888 
     75 H75        28.5001   26.2906    0.4654 H         1 UNK         0.3017 
     76 H76        29.1646   24.2370    0.6719 H         1 UNK         0.0873 
     77 H77        30.6059   22.9958   -0.9227 H         1 UNK         0.0745 
     78 H78        30.4373   24.2492   -2.1134 H         1 UNK         0.0745 
     79 H79        32.5686   22.7168    0.2443 H         1 UNK         0.0705 
     80 H80        33.7178   23.9134    0.7654 H         1 UNK         0.0705 
     81 H81        33.2366   25.3910    2.7387 H         1 UNK         0.1334 
     82 H82        30.7435   23.6489    5.7500 H         1 UNK         0.1417 
     83 H83        30.7655   22.0148    1.7794 H         1 UNK         0.1562 
     84 H84        29.7443   21.4523    5.3131 H         1 UNK         0.0748 
     85 H85        29.8747   20.7139    3.7414 H         1 UNK         0.0748 
     86 H86        28.4648   23.6089    5.6745 H         1 UNK         0.0940 
     87 H87        26.7478   23.4159    5.5311 H         1 UNK         0.0940 
     88 H88        28.3919   24.8150    3.3682 H         1 UNK         0.0703 
     89 H89        25.5321   24.3952    3.7598 H         1 UNK         0.3081 
     90 H90        24.1843   24.6477    1.8935 H         1 UNK         0.0719 
     91 H91        24.2862   27.7230    2.1580 H         1 UNK         0.0809 
     92 H92        22.8167   26.7557    2.0556 H         1 UNK         0.0809 
     93 H93        23.8552   26.6243    3.4606 H         1 UNK         0.0809 
     94 H94        25.6439   26.0293   -0.0897 H         1 UNK         0.2990 
     95 H95        23.1975   25.6060   -2.6939 H         1 UNK         0.0690 
     96 H96        24.4962   27.5809   -3.4558 H         1 UNK         0.0788 
     97 H97        25.1563   27.8084   -1.8366 H         1 UNK         0.0788 
     98 H98        23.4365   28.0199   -2.1270 H         1 UNK         0.0788 
     99 H99        26.0860   25.6365   -2.6373 H         1 UNK         0.2993 
    100 H100       26.5086   22.1023   -2.6430 H         1 UNK         0.0949 
    101 H101       26.0306   22.6861   -5.0271 H         1 UNK         0.0767 
    102 H102       26.9279   24.1893   -4.8560 H         1 UNK         0.0767 
    103 H103       27.7591   22.6399   -4.7210 H         1 UNK         0.0767 
    104 H104       28.2287   24.4666   -2.7702 H         1 UNK         0.3013 
    105 H105       27.6955   27.1760    3.1835 H         1 UNK         0.3121 
    106 H106       28.7700   28.6272    5.4565 H         1 UNK         0.0774 
    107 H107       26.3657   28.5815    6.1313 H         1 UNK         0.0815 
    108 H108       26.8073   30.1975    5.6057 H         1 UNK         0.0815 
    109 H109       25.8801   29.1524    4.5358 H         1 UNK         0.0815 
    110 H110       30.2006   28.3142    3.4768 H         1 UNK         0.2987 
    111 H111       29.6812   29.8630    1.0830 H         1 UNK         0.0949 
    112 H112       32.2216   28.4865    2.1295 H         1 UNK         0.0806 
    113 H113       31.0352   27.7701    1.0471 H         1 UNK         0.0806 
    114 H114       32.0135   29.1185    0.5049 H         1 UNK         0.0806 
    115 H115       31.5240   31.3606    0.3217 H         1 UNK         0.3010 
    116 H116       31.4143   33.7608    1.8053 H         1 UNK         0.0829 
    117 H117       31.6241   33.6595   -0.6794 H         1 UNK         0.0813 
    118 H118       32.9450   34.5955   -0.0037 H         1 UNK         0.0813 
    119 H119       33.2316   32.9456   -0.5356 H         1 UNK         0.0813 
    120 H120       33.0718   35.0398    2.6906 H         1 UNK         0.3038 
    121 H121       34.6637   35.5540    4.1317 H         1 UNK         0.0769 
    122 H122       36.3808   33.3498    2.8518 H         1 UNK         0.0811 
    123 H123       36.9599   34.7112    3.8123 H         1 UNK         0.0811 
    124 H124       36.2265   34.9933    2.2492 H         1 UNK         0.0811 
    125 H125       36.5301   33.1092    5.0809 H         1 UNK         0.3204 
    126 H126       34.8864   32.4273    7.4324 H         1 UNK         0.0748 
    127 H127       37.2607   33.1280    7.7289 H         1 UNK         0.0771 
    128 H128       37.0074   31.4858    8.2906 H         1 UNK         0.0771 
    129 H129       37.7985   31.7664    6.7450 H         1 UNK         0.0771 
    130 H130       33.6520   31.4336    5.2358 H         1 UNK         0.2980 
    131 H131       32.7987   29.7036    4.2231 H         1 UNK         0.0545 
    132 H132       34.7488   30.4308    2.7371 H         1 UNK         0.3459 
    133 H133       35.7586   29.0939    2.2202 H         1 UNK         0.3459 
    134 H134       33.7681   27.7956    6.3960 H         1 UNK         0.0616 
    135 H135       32.4779   28.9306    6.6622 H         1 UNK         0.0616 
    136 H136       32.3894   25.3076    6.3694 H         1 UNK         0.0634 
    137 H137       33.6297   25.7433    5.2213 H         1 UNK         0.0634 
@<TRIPOS>BOND
     1    1    2 1    
     2    1   72 1    
     3    1   73 1    
     4    1   74 1    
     5    2    3 2    
     6    2    4 am   BACKBONE|DICT|INTERRES
     7    4    5 1    
     8    4   75 1    
     9    5    6 1    
    10    5   35 1    
    11    5   76 1    
    12    6    7 1    
    13    6   77 1    
    14    6   78 1    
    15    7    8 1    
    16    8    9 1    
    17    8   79 1    
    18    8   80 1    
    19    9   10 ar   
    20    9   14 ar   
    21   10   11 ar   
    22   10   81 1    
    23   11   12 ar   
    24   11   71 1    
    25   12   13 ar   
    26   12   82 1    
    27   13   14 ar   
    28   13   15 1    
    29   14   83 1    
    30   15   16 1    
    31   15   84 1    
    32   15   85 1    
    33   16   17 1    
    34   17   18 1    
    35   17   86 1    
    36   17   87 1    
    37   18   19 1    
    38   18   37 1    
    39   18   88 1    
    40   19   20 am   BACKBONE|DICT|INTERRES
    41   19   89 1    
    42   20   21 2    
    43   20   22 1    
    44   22   23 1    
    45   22   24 1    
    46   22   90 1    
    47   23   91 1    
    48   23   92 1    
    49   23   93 1    
    50   24   25 am   BACKBONE|DICT|INTERRES
    51   24   94 1    
    52   25   26 2    
    53   25   27 1    
    54   27   28 1    
    55   27   29 1    
    56   27   95 1    
    57   28   96 1    
    58   28   97 1    
    59   28   98 1    
    60   29   30 am   BACKBONE|DICT|INTERRES
    61   29   99 1    
    62   30   31 2    
    63   30   32 1    
    64   32   33 1    
    65   32   34 1    
    66   32  100 1    
    67   33  101 1    
    68   33  102 1    
    69   33  103 1    
    70   34   35 am   BACKBONE|DICT|INTERRES
    71   34  104 1    
    72   35   36 2    
    73   37   38 2    
    74   37   39 am   BACKBONE|DICT|INTERRES
    75   39   40 1    
    76   39  105 1    
    77   40   41 1    
    78   40   42 1    
    79   40  106 1    
    80   41  107 1    
    81   41  108 1    
    82   41  109 1    
    83   42   43 2    
    84   42   44 am   BACKBONE|DICT|INTERRES
    85   44   45 1    
    86   44  110 1    
    87   45   46 1    
    88   45   47 1    
    89   45  111 1    
    90   46  112 1    
    91   46  113 1    
    92   46  114 1    
    93   47   48 2    
    94   47   49 am   BACKBONE|DICT|INTERRES
    95   49   50 1    
    96   49  115 1    
    97   50   51 1    
    98   50   52 1    
    99   50  116 1    
   100   51  117 1    
   101   51  118 1    
   102   51  119 1    
   103   52   53 2    
   104   52   54 am   BACKBONE|DICT|INTERRES
   105   54   55 1    
   106   54  120 1    
   107   55   56 1    
   108   55   57 1    
   109   55  121 1    
   110   56  122 1    
   111   56  123 1    
   112   56  124 1    
   113   57   58 2    
   114   57   59 am   BACKBONE|DICT|INTERRES
   115   59   60 1    
   116   59  125 1    
   117   60   61 1    
   118   60   62 1    
   119   60  126 1    
   120   61  127 1    
   121   61  128 1    
   122   61  129 1    
   123   62   63 2    
   124   62   64 am   BACKBONE|DICT|INTERRES
   125   64   65 1    
   126   64  130 1    
   127   65   66 1    
   128   65   69 1    
   129   65  131 1    
   130   66   67 am   BACKBONE|DICT|INTERRES
   131   66   68 2    
   132   67  132 1    
   133   67  133 1    
   134   69   70 1    
   135   69  134 1    
   136   69  135 1    
   137   70   71 1    
   138   71  136 1    
   139   71  137 1    
@<TRIPOS>SUBSTRUCTURE
     1 UNK         1 GROUP             0       ****    0 ROOT    
