@<TRIPOS>MOLECULE
3R136
137   139    1
SMALL
USER_CHARGES


@<TRIPOS>ATOM
      1 CA         34.0452   19.1697    1.5998 C.3       0 UNK        -0.1979 
      2 C          33.1607   20.3316    2.0281 C.2       0 UNK         0.4864 
      3 O          33.3631   20.8883    3.1081 O.2       0 UNK        -0.5359 
      4 N          32.1848   20.6992    1.1922 N.am      1 UNK        -0.4318 
      5 CA         31.2496   21.7969    1.4167 C.3       1 UNK         0.0824 
      6 C6         30.0675   21.3626    2.3291 C.3       12 UNK        -0.0944 
      7 S7         28.8398   22.6837    2.6163 S.3       12 UNK        -0.2672 
      8 C8         29.0435   23.0417    4.3876 C.3       12 UNK         0.0333 
      9 C9         28.5826   24.4578    4.6983 C.ar      12 UNK        -0.0807 
     10 C10        29.5139   25.4307    5.0682 C.ar      12 UNK        -0.0894 
     11 C11        29.1172   26.7561    5.2797 C.ar      12 UNK        -0.0804 
     12 C12        27.7661   27.0941    5.1561 C.ar      12 UNK        -0.0824 
     13 C13        26.8210   26.1253    4.8041 C.ar      12 UNK        -0.0762 
     14 C14        27.2341   24.8083    4.5816 C.ar      12 UNK        -0.0782 
     15 C15        25.3528   26.4955    4.6578 C.3       12 UNK         0.0230 
     16 S16        24.8791   26.7123    2.9122 S.3       12 UNK        -0.2608 
     17 C17        25.6690   28.3039    2.4875 C.3       12 UNK        -0.0989 
     18 CA         26.8384   28.1524    1.4686 C.3       5 UNK         0.0716 
     19 N          26.4515   27.4892    0.2143 N.am      5 UNK        -0.4135 
     20 C          25.4871   27.8585   -0.6466 C.2       4 UNK         0.5031 
     21 O          24.7326   28.8177   -0.4737 O.2       4 UNK        -0.5229 
     22 CA         25.3231   27.0274   -1.9372 C.3       4 UNK         0.0329 
     23 CB         25.9412   27.7697   -3.1337 C.3       4 UNK        -0.2001 
     24 N          25.9102   25.6889   -1.8562 N.am      4 UNK        -0.4303 
     25 C          25.4397   24.6884   -1.0994 C.2       3 UNK         0.5044 
     26 O          24.3697   24.7397   -0.4924 O.2       3 UNK        -0.5152 
     27 CA         26.3065   23.4180   -0.9823 C.3       3 UNK         0.0319 
     28 CB         25.6764   22.2630   -1.7782 C.3       3 UNK        -0.2001 
     29 N          27.7150   23.5557   -1.3827 N.am      3 UNK        -0.4354 
     30 C          28.6057   24.4098   -0.8591 C.2       2 UNK         0.4964 
     31 O          28.3218   25.2928   -0.0472 O.2       2 UNK        -0.5047 
     32 CA         30.0661   24.2282   -1.2956 C.3       2 UNK         0.0288 
     33 CB         30.7315   25.5753   -1.6273 C.3       2 UNK        -0.2113 
     34 N          30.7782   23.5862   -0.1949 N.am      2 UNK        -0.4145 
     35 C          30.7761   22.2669    0.0314 C.2       1 UNK         0.5006 
     36 O          30.3859   21.4297   -0.7881 O.2       1 UNK        -0.5103 
     37 C          27.5585   29.4987    1.2123 C.2       5 UNK         0.5055 
     38 O          27.6565   29.9621    0.0727 O.2       5 UNK        -0.5220 
     39 N          28.0637   30.1088    2.2891 N.am      6 UNK        -0.4450 
     40 CA         28.6714   31.4355    2.3243 C.3       6 UNK         0.0367 
     41 CB         30.1042   31.4074    1.7531 C.3       6 UNK        -0.1929 
     42 C          28.6650   31.9094    3.7825 C.2       6 UNK         0.5070 
     43 O          28.4423   31.1024    4.6890 O.2       6 UNK        -0.5237 
     44 N          28.9261   33.2055    3.9818 N.am      7 UNK        -0.4739 
     45 CA         29.0175   33.8492    5.2983 C.3       7 UNK         0.0276 
     46 CB         28.5296   35.3032    5.1656 C.3       7 UNK        -0.1927 
     47 C          30.4366   33.7997    5.9026 C.2       7 UNK         0.5013 
     48 O          30.6579   34.3842    6.9645 O.2       7 UNK        -0.5193 
     49 N          31.3749   33.1349    5.2205 N.am      8 UNK        -0.4253 
     50 CA         32.7805   32.9983    5.5880 C.3       8 UNK         0.0242 
     51 CB         33.5716   34.1961    5.0260 C.3       8 UNK        -0.2000 
     52 C          33.3057   31.6645    5.0408 C.2       8 UNK         0.4948 
     53 O          32.5776   30.9654    4.3321 O.2       8 UNK        -0.5275 
     54 N          34.5770   31.3584    5.3396 N.am      9 UNK        -0.4246 
     55 CA         35.2980   30.1220    4.9926 C.3       9 UNK         0.0261 
     56 CB         36.7152   30.1929    5.5862 C.3       9 UNK        -0.1959 
     57 C          35.3617   29.7544    3.4940 C.2       9 UNK         0.5033 
     58 O          35.7500   28.6304    3.1704 O.2       9 UNK        -0.5390 
     59 N          34.9398   30.6682    2.6083 N.am      10 UNK        -0.4215 
     60 CA         34.7107   30.4501    1.1759 C.3       10 UNK         0.0240 
     61 CB         34.2430   31.7706    0.5420 C.3       10 UNK        -0.1982 
     62 C          33.7087   29.3197    0.8578 C.2       10 UNK         0.4970 
     63 O          33.7401   28.7955   -0.2560 O.2       10 UNK        -0.4916 
     64 N          32.8658   28.9460    1.8315 N.am      11 UNK        -0.4279 
     65 CA         32.0242   27.7421    1.7963 C.3       11 UNK         0.1003 
     66 C          32.7967   26.3864    1.7844 C.2       11 UNK         0.5709 
     67 N          34.0916   26.3466    2.0804 N.am      11 UNK        -0.7358 
     68 O          32.2038   25.3491    1.4989 O.2       11 UNK        -0.4999 
     69 C69        30.9513   27.7701    2.9123 C.3       12 UNK        -0.0954 
     70 S70        31.6510   27.7509    4.6015 S.3       12 UNK        -0.2268 
     71 C71        30.1411   27.8351    5.6208 C.3       12 UNK         0.0203 
     72 H72        33.7534   18.7716    0.6280 H         1 UNK         0.0888 
     73 H73        33.9830   18.3624    2.3290 H         1 UNK         0.0888 
     74 H74        35.0840   19.4926    1.5358 H         1 UNK         0.0888 
     75 H75        32.0622   20.2287    0.3038 H         1 UNK         0.3017 
     76 H76        31.7833   22.6206    1.8970 H         1 UNK         0.0873 
     77 H77        30.4485   21.0099    3.2885 H         1 UNK         0.0745 
     78 H78        29.5446   20.5114    1.8890 H         1 UNK         0.0745 
     79 H79        28.4689   22.3239    4.9745 H         1 UNK         0.0705 
     80 H80        30.0900   22.9131    4.6691 H         1 UNK         0.0705 
     81 H81        30.5584   25.1648    5.1551 H         1 UNK         0.1334 
     82 H82        27.4518   28.1148    5.3272 H         1 UNK         0.1417 
     83 H83        26.5100   24.0601    4.2882 H         1 UNK         0.1562 
     84 H84        25.1194   27.4011    5.2200 H         1 UNK         0.0748 
     85 H85        24.7370   25.7058    5.0909 H         1 UNK         0.0748 
     86 H86        26.0108   28.7757    3.4090 H         1 UNK         0.0940 
     87 H87        24.8984   28.9698    2.0966 H         1 UNK         0.0940 
     88 H88        27.5857   27.4958    1.9185 H         1 UNK         0.0703 
     89 H89        27.0279   26.6863   -0.0240 H         1 UNK         0.3081 
     90 H90        24.2520   26.9164   -2.1195 H         1 UNK         0.0719 
     91 H91        25.4990   28.7606   -3.2476 H         1 UNK         0.0809 
     92 H92        27.0165   27.9067   -3.0113 H         1 UNK         0.0809 
     93 H93        25.7722   27.2323   -4.0670 H         1 UNK         0.0809 
     94 H94        26.7926   25.5491   -2.3256 H         1 UNK         0.2990 
     95 H95        26.3066   23.1409    0.0741 H         1 UNK         0.0690 
     96 H96        26.2063   21.3258   -1.6065 H         1 UNK         0.0788 
     97 H97        25.6823   22.4630   -2.8505 H         1 UNK         0.0788 
     98 H98        24.6385   22.1027   -1.4823 H         1 UNK         0.0788 
     99 H99        28.0547   22.8597   -2.0319 H         1 UNK         0.2993 
    100 H100       30.1106   23.5980   -2.1868 H         1 UNK         0.0949 
    101 H101       30.6970   26.2643   -0.7837 H         1 UNK         0.0767 
    102 H102       31.7773   25.4425   -1.9053 H         1 UNK         0.0767 
    103 H103       30.2299   26.0613   -2.4649 H         1 UNK         0.0767 
    104 H104       31.1417   24.2095    0.5245 H         1 UNK         0.3013 
    105 H105       27.9513   29.7071    3.2127 H         1 UNK         0.3121 
    106 H106       28.0538   32.1174    1.7358 H         1 UNK         0.0774 
    107 H107       30.7817   30.8425    2.3910 H         1 UNK         0.0815 
    108 H108       30.1371   30.9652    0.7575 H         1 UNK         0.0815 
    109 H109       30.5116   32.4150    1.6674 H         1 UNK         0.0815 
    110 H110       29.1054   33.7964    3.1816 H         1 UNK         0.2987 
    111 H111       28.3566   33.3342    5.9994 H         1 UNK         0.0949 
    112 H112       27.5133   35.3466    4.7734 H         1 UNK         0.0806 
    113 H113       28.5199   35.8052    6.1341 H         1 UNK         0.0806 
    114 H114       29.1713   35.8858    4.5034 H         1 UNK         0.0806 
    115 H115       31.1014   32.5884    4.4142 H         1 UNK         0.3010 
    116 H116       32.8722   32.9713    6.6760 H         1 UNK         0.0829 
    117 H117       34.6226   34.1551    5.3133 H         1 UNK         0.0813 
    118 H118       33.1777   35.1405    5.4024 H         1 UNK         0.0813 
    119 H119       33.5294   34.2305    3.9365 H         1 UNK         0.0813 
    120 H120       35.0935   32.0140    5.9087 H         1 UNK         0.3038 
    121 H121       34.7667   29.3027    5.4815 H         1 UNK         0.0769 
    122 H122       36.6884   30.3216    6.6684 H         1 UNK         0.0811 
    123 H123       37.2884   31.0182    5.1618 H         1 UNK         0.0811 
    124 H124       37.2712   29.2752    5.3881 H         1 UNK         0.0811 
    125 H125       34.6193   31.5492    2.9816 H         1 UNK         0.3204 
    126 H126       35.6670   30.1692    0.7304 H         1 UNK         0.0748 
    127 H127       34.0900   31.6563   -0.5323 H         1 UNK         0.0771 
    128 H128       33.2993   32.1112    0.9709 H         1 UNK         0.0771 
    129 H129       34.9807   32.5615    0.6790 H         1 UNK         0.0771 
    130 H130       32.8858   29.4410    2.7155 H         1 UNK         0.2980 
    131 H131       31.4866   27.7793    0.8480 H         1 UNK         0.0545 
    132 H132       34.5904   27.1838    2.3612 H         1 UNK         0.3459 
    133 H133       34.5690   25.4604    2.0669 H         1 UNK         0.3459 
    134 H134       30.2732   26.9239    2.7903 H         1 UNK         0.0616 
    135 H135       30.3301   28.6572    2.8134 H         1 UNK         0.0616 
    136 H136       29.7084   28.8293    5.5023 H         1 UNK         0.0634 
    137 H137       30.4195   27.7399    6.6707 H         1 UNK         0.0634 
@<TRIPOS>BOND
     1    1    2 1    
     2    1   72 1    
     3    1   73 1    
     4    1   74 1    
     5    2    3 2    
     6    2    4 am   BACKBONE|DICT|INTERRES
     7    4    5 1    
     8    4   75 1    
     9    5    6 1    
    10    5   35 1    
    11    5   76 1    
    12    6    7 1    
    13    6   77 1    
    14    6   78 1    
    15    7    8 1    
    16    8    9 1    
    17    8   79 1    
    18    8   80 1    
    19    9   10 ar   
    20    9   14 ar   
    21   10   11 ar   
    22   10   81 1    
    23   11   12 ar   
    24   11   71 1    
    25   12   13 ar   
    26   12   82 1    
    27   13   14 ar   
    28   13   15 1    
    29   14   83 1    
    30   15   16 1    
    31   15   84 1    
    32   15   85 1    
    33   16   17 1    
    34   17   18 1    
    35   17   86 1    
    36   17   87 1    
    37   18   19 1    
    38   18   37 1    
    39   18   88 1    
    40   19   20 am   BACKBONE|DICT|INTERRES
    41   19   89 1    
    42   20   21 2    
    43   20   22 1    
    44   22   23 1    
    45   22   24 1    
    46   22   90 1    
    47   23   91 1    
    48   23   92 1    
    49   23   93 1    
    50   24   25 am   BACKBONE|DICT|INTERRES
    51   24   94 1    
    52   25   26 2    
    53   25   27 1    
    54   27   28 1    
    55   27   29 1    
    56   27   95 1    
    57   28   96 1    
    58   28   97 1    
    59   28   98 1    
    60   29   30 am   BACKBONE|DICT|INTERRES
    61   29   99 1    
    62   30   31 2    
    63   30   32 1    
    64   32   33 1    
    65   32   34 1    
    66   32  100 1    
    67   33  101 1    
    68   33  102 1    
    69   33  103 1    
    70   34   35 am   BACKBONE|DICT|INTERRES
    71   34  104 1    
    72   35   36 2    
    73   37   38 2    
    74   37   39 am   BACKBONE|DICT|INTERRES
    75   39   40 1    
    76   39  105 1    
    77   40   41 1    
    78   40   42 1    
    79   40  106 1    
    80   41  107 1    
    81   41  108 1    
    82   41  109 1    
    83   42   43 2    
    84   42   44 am   BACKBONE|DICT|INTERRES
    85   44   45 1    
    86   44  110 1    
    87   45   46 1    
    88   45   47 1    
    89   45  111 1    
    90   46  112 1    
    91   46  113 1    
    92   46  114 1    
    93   47   48 2    
    94   47   49 am   BACKBONE|DICT|INTERRES
    95   49   50 1    
    96   49  115 1    
    97   50   51 1    
    98   50   52 1    
    99   50  116 1    
   100   51  117 1    
   101   51  118 1    
   102   51  119 1    
   103   52   53 2    
   104   52   54 am   BACKBONE|DICT|INTERRES
   105   54   55 1    
   106   54  120 1    
   107   55   56 1    
   108   55   57 1    
   109   55  121 1    
   110   56  122 1    
   111   56  123 1    
   112   56  124 1    
   113   57   58 2    
   114   57   59 am   BACKBONE|DICT|INTERRES
   115   59   60 1    
   116   59  125 1    
   117   60   61 1    
   118   60   62 1    
   119   60  126 1    
   120   61  127 1    
   121   61  128 1    
   122   61  129 1    
   123   62   63 2    
   124   62   64 am   BACKBONE|DICT|INTERRES
   125   64   65 1    
   126   64  130 1    
   127   65   66 1    
   128   65   69 1    
   129   65  131 1    
   130   66   67 am   BACKBONE|DICT|INTERRES
   131   66   68 2    
   132   67  132 1    
   133   67  133 1    
   134   69   70 1    
   135   69  134 1    
   136   69  135 1    
   137   70   71 1    
   138   71  136 1    
   139   71  137 1    
@<TRIPOS>SUBSTRUCTURE
     1 UNK         1 GROUP             0       ****    0 ROOT    
