@<TRIPOS>MOLECULE
3R136
137   139    1
SMALL
USER_CHARGES


@<TRIPOS>ATOM
      1 CA         26.7093   24.4508    3.3968 C.3       0 UNK        -0.1979 
      2 C          27.2666   23.1782    2.7811 C.2       0 UNK         0.4864 
      3 O          26.4996   22.3285    2.3276 O.2       0 UNK        -0.5359 
      4 N          28.5993   23.0448    2.7477 N.am      1 UNK        -0.4318 
      5 CA         29.3198   21.8723    2.2328 C.3       1 UNK         0.0824 
      6 C6         30.8298   21.9467    2.5644 C.3       12 UNK        -0.0944 
      7 S7         31.2340   21.5042    4.2933 S.3       12 UNK        -0.2672 
      8 C8         30.6371   22.9034    5.3140 C.3       12 UNK         0.0333 
      9 C9         31.1018   24.2968    4.8889 C.ar      12 UNK        -0.0807 
     10 C10        32.2944   24.5029    4.1845 C.ar      12 UNK        -0.0894 
     11 C11        32.6539   25.7798    3.7493 C.ar      12 UNK        -0.0804 
     12 C12        31.8553   26.8735    4.0911 C.ar      12 UNK        -0.0824 
     13 C13        30.6756   26.6907    4.8175 C.ar      12 UNK        -0.0762 
     14 C14        30.3064   25.4019    5.2143 C.ar      12 UNK        -0.0782 
     15 C15        29.7767   27.8815    5.1285 C.3       12 UNK         0.0230 
     16 S16        28.3385   27.9468    4.0093 S.3       12 UNK        -0.2608 
     17 C17        29.1789   27.9697    2.3889 C.3       12 UNK        -0.0989 
     18 CA         28.4142   28.6707    1.2354 C.3       5 UNK         0.0716 
     19 N          27.1141   28.0757    0.9408 N.am      5 UNK        -0.4135 
     20 C          26.9077   26.8467    0.4659 C.2       4 UNK         0.5031 
     21 O          27.8046   26.0138    0.2850 O.2       4 UNK        -0.5229 
     22 CA         25.4554   26.4841    0.1198 C.3       4 UNK         0.0329 
     23 CB         24.9711   27.2633   -1.1197 C.3       4 UNK        -0.2001 
     24 N          25.4441   25.0527   -0.1390 N.am      4 UNK        -0.4303 
     25 C          24.4150   24.2276   -0.3483 C.2       3 UNK         0.5044 
     26 O          23.2359   24.5837   -0.3338 O.2       3 UNK        -0.5152 
     27 CA         24.7660   22.7414   -0.5821 C.3       3 UNK         0.0319 
     28 CB         23.9687   22.1217   -1.7492 C.3       3 UNK        -0.2001 
     29 N          26.2140   22.4949   -0.7066 N.am      3 UNK        -0.4354 
     30 C          27.0352   22.8503   -1.7114 C.2       2 UNK         0.4964 
     31 O          26.6419   23.3278   -2.7758 O.2       2 UNK        -0.5047 
     32 CA         28.5528   22.7090   -1.4667 C.3       2 UNK         0.0288 
     33 CB         29.3551   23.8228   -2.1673 C.3       2 UNK        -0.2113 
     34 N          28.8761   22.7359   -0.0369 N.am      2 UNK        -0.4145 
     35 C          29.1058   21.6521    0.7184 C.2       1 UNK         0.5006 
     36 O          29.1240   20.5040    0.2721 O.2       1 UNK        -0.5103 
     37 C          28.2166   30.1809    1.4586 C.2       5 UNK         0.5055 
     38 O          27.0747   30.6553    1.4569 O.2       5 UNK        -0.5220 
     39 N          29.3263   30.9111    1.6242 N.am      6 UNK        -0.4450 
     40 CA         29.3425   32.3373    1.9570 C.3       6 UNK         0.0367 
     41 CB         30.7339   32.8959    1.6046 C.3       6 UNK        -0.1929 
     42 C          28.9944   32.5955    3.4390 C.2       6 UNK         0.5070 
     43 O          28.7540   31.6598    4.2046 O.2       6 UNK        -0.5237 
     44 N          28.9971   33.8780    3.8315 N.am      7 UNK        -0.4739 
     45 CA         28.8700   34.3089    5.2310 C.3       7 UNK         0.0276 
     46 CB         28.5946   35.8207    5.2759 C.3       7 UNK        -0.1927 
     47 C          30.1091   33.9582    6.0801 C.2       7 UNK         0.5013 
     48 O          29.9810   33.7581    7.2888 O.2       7 UNK        -0.5193 
     49 N          31.2737   33.8810    5.4251 N.am      8 UNK        -0.4253 
     50 CA         32.5242   33.3481    5.9629 C.3       8 UNK         0.0242 
     51 CB         33.6862   34.2045    5.4287 C.3       8 UNK        -0.2000 
     52 C          32.6869   31.8840    5.5222 C.2       8 UNK         0.4948 
     53 O          31.9373   31.4075    4.6668 O.2       8 UNK        -0.5275 
     54 N          33.6977   31.1949    6.0660 N.am      9 UNK        -0.4246 
     55 CA         34.0530   29.8107    5.7261 C.3       9 UNK         0.0261 
     56 CB         34.9303   29.2290    6.8505 C.3       9 UNK        -0.1959 
     57 C          34.7077   29.6779    4.3311 C.2       9 UNK         0.5033 
     58 O          35.8188   29.1568    4.2171 O.2       9 UNK        -0.5390 
     59 N          34.0047   30.1518    3.2980 N.am      10 UNK        -0.4215 
     60 CA         34.3609   30.0586    1.8868 C.3       10 UNK         0.0240 
     61 CB         34.5954   31.4684    1.3210 C.3       10 UNK        -0.1982 
     62 C          33.2108   29.3584    1.1573 C.2       10 UNK         0.4970 
     63 O          32.0460   29.6912    1.3943 O.2       10 UNK        -0.4916 
     64 N          33.5635   28.3945    0.3043 N.am      11 UNK        -0.4279 
     65 CA         32.6315   27.4804   -0.3710 C.3       11 UNK         0.1003 
     66 C          33.1000   27.0432   -1.7890 C.2       11 UNK         0.5709 
     67 N          34.1109   27.6745   -2.3765 N.am      11 UNK        -0.7358 
     68 O          32.5250   26.1348   -2.3833 O.2       11 UNK        -0.4999 
     69 C69        32.2181   26.2980    0.5507 C.3       12 UNK        -0.0954 
     70 S70        33.6205   25.3038    1.1838 S.3       12 UNK        -0.2268 
     71 C71        33.8793   25.9665    2.8674 C.3       12 UNK         0.0203 
     72 H72        27.4702   25.2276    3.4617 H         1 UNK         0.0888 
     73 H73        25.8856   24.8348    2.7957 H         1 UNK         0.0888 
     74 H74        26.3348   24.2503    4.4007 H         1 UNK         0.0888 
     75 H75        29.1812   23.7794    3.1252 H         1 UNK         0.3017 
     76 H76        28.9027   20.9921    2.7274 H         1 UNK         0.0873 
     77 H77        31.3896   21.2366    1.9516 H         1 UNK         0.0745 
     78 H78        31.2361   22.9250    2.3062 H         1 UNK         0.0745 
     79 H79        29.5474   22.8633    5.3405 H         1 UNK         0.0705 
     80 H80        30.9670   22.7360    6.3400 H         1 UNK         0.0705 
     81 H81        32.9277   23.6660    3.9258 H         1 UNK         0.1334 
     82 H82        32.1282   27.8632    3.7530 H         1 UNK         0.1417 
     83 H83        29.3845   25.2614    5.7631 H         1 UNK         0.1562 
     84 H84        30.3321   28.8185    5.0506 H         1 UNK         0.0748 
     85 H85        29.4249   27.8192    6.1591 H         1 UNK         0.0748 
     86 H86        29.3957   26.9364    2.1174 H         1 UNK         0.0940 
     87 H87        30.1519   28.4402    2.5139 H         1 UNK         0.0940 
     88 H88        29.0179   28.5759    0.3301 H         1 UNK         0.0703 
     89 H89        26.3447   28.7243    1.0587 H         1 UNK         0.3081 
     90 H90        24.8172   26.6979    0.9791 H         1 UNK         0.0719 
     91 H91        25.5920   27.0535   -1.9919 H         1 UNK         0.0809 
     92 H92        23.9421   27.0113   -1.3757 H         1 UNK         0.0809 
     93 H93        25.0003   28.3399   -0.9484 H         1 UNK         0.0809 
     94 H94        26.3802   24.6661   -0.1561 H         1 UNK         0.2990 
     95 H95        24.4620   22.2225    0.3280 H         1 UNK         0.0690 
     96 H96        24.2412   21.0784   -1.9075 H         1 UNK         0.0788 
     97 H97        24.1283   22.6584   -2.6845 H         1 UNK         0.0788 
     98 H98        22.8978   22.1487   -1.5443 H         1 UNK         0.0788 
     99 H99        26.6382   22.1297    0.1389 H         1 UNK         0.2993 
    100 H100       28.8547   21.7550   -1.9041 H         1 UNK         0.0949 
    101 H101       29.2157   23.7897   -3.2486 H         1 UNK         0.0767 
    102 H102       29.0513   24.8142   -1.8291 H         1 UNK         0.0767 
    103 H103       30.4244   23.7210   -1.9794 H         1 UNK         0.0767 
    104 H104       28.8608   23.6444    0.4083 H         1 UNK         0.3013 
    105 H105       30.2294   30.4444    1.6280 H         1 UNK         0.3121 
    106 H106       28.5962   32.8466    1.3435 H         1 UNK         0.0774 
    107 H107       30.7737   33.9800    1.7124 H         1 UNK         0.0815 
    108 H108       31.5056   32.4726    2.2474 H         1 UNK         0.0815 
    109 H109       31.0023   32.6695    0.5724 H         1 UNK         0.0815 
    110 H110       29.1663   34.6008    3.1461 H         1 UNK         0.2987 
    111 H111       28.0151   33.7913    5.6721 H         1 UNK         0.0949 
    112 H112       29.4119   36.3951    4.8380 H         1 UNK         0.0806 
    113 H113       27.6794   36.0739    4.7403 H         1 UNK         0.0806 
    114 H114       28.4709   36.1632    6.3044 H         1 UNK         0.0806 
    115 H115       31.2429   33.9948    4.4234 H         1 UNK         0.3010 
    116 H116       32.5170   33.3877    7.0543 H         1 UNK         0.0829 
    117 H117       33.5588   35.2536    5.6966 H         1 UNK         0.0813 
    118 H118       34.6417   33.8826    5.8442 H         1 UNK         0.0813 
    119 H119       33.7669   34.1450    4.3422 H         1 UNK         0.0813 
    120 H120       34.2979   31.6596    6.7324 H         1 UNK         0.3038 
    121 H121       33.1329   29.2230    5.6977 H         1 UNK         0.0769 
    122 H122       35.8744   29.7667    6.9457 H         1 UNK         0.0811 
    123 H123       35.1688   28.1819    6.6577 H         1 UNK         0.0811 
    124 H124       34.4209   29.2690    7.8134 H         1 UNK         0.0811 
    125 H125       33.0876   30.5497    3.5011 H         1 UNK         0.3204 
    126 H126       35.2745   29.4730    1.7636 H         1 UNK         0.0748 
    127 H127       34.8651   31.4261    0.2650 H         1 UNK         0.0771 
    128 H128       33.7073   32.0944    1.4065 H         1 UNK         0.0771 
    129 H129       35.4086   31.9720    1.8440 H         1 UNK         0.0771 
    130 H130       34.5416   28.1807    0.1729 H         1 UNK         0.2980 
    131 H131       31.7206   28.0448   -0.5790 H         1 UNK         0.0545 
    132 H132       34.3956   27.3817   -3.2981 H         1 UNK         0.3459 
    133 H133       34.5567   28.4671   -1.9447 H         1 UNK         0.3459 
    134 H134       31.5318   25.6266    0.0317 H         1 UNK         0.0616 
    135 H135       31.6449   26.6862    1.3887 H         1 UNK         0.0616 
    136 H136       34.1585   27.0179    2.8045 H         1 UNK         0.0634 
    137 H137       34.7290   25.4538    3.3200 H         1 UNK         0.0634 
@<TRIPOS>BOND
     1    1    2 1    
     2    1   72 1    
     3    1   73 1    
     4    1   74 1    
     5    2    3 2    
     6    2    4 am   BACKBONE|DICT|INTERRES
     7    4    5 1    
     8    4   75 1    
     9    5    6 1    
    10    5   35 1    
    11    5   76 1    
    12    6    7 1    
    13    6   77 1    
    14    6   78 1    
    15    7    8 1    
    16    8    9 1    
    17    8   79 1    
    18    8   80 1    
    19    9   10 ar   
    20    9   14 ar   
    21   10   11 ar   
    22   10   81 1    
    23   11   12 ar   
    24   11   71 1    
    25   12   13 ar   
    26   12   82 1    
    27   13   14 ar   
    28   13   15 1    
    29   14   83 1    
    30   15   16 1    
    31   15   84 1    
    32   15   85 1    
    33   16   17 1    
    34   17   18 1    
    35   17   86 1    
    36   17   87 1    
    37   18   19 1    
    38   18   37 1    
    39   18   88 1    
    40   19   20 am   BACKBONE|DICT|INTERRES
    41   19   89 1    
    42   20   21 2    
    43   20   22 1    
    44   22   23 1    
    45   22   24 1    
    46   22   90 1    
    47   23   91 1    
    48   23   92 1    
    49   23   93 1    
    50   24   25 am   BACKBONE|DICT|INTERRES
    51   24   94 1    
    52   25   26 2    
    53   25   27 1    
    54   27   28 1    
    55   27   29 1    
    56   27   95 1    
    57   28   96 1    
    58   28   97 1    
    59   28   98 1    
    60   29   30 am   BACKBONE|DICT|INTERRES
    61   29   99 1    
    62   30   31 2    
    63   30   32 1    
    64   32   33 1    
    65   32   34 1    
    66   32  100 1    
    67   33  101 1    
    68   33  102 1    
    69   33  103 1    
    70   34   35 am   BACKBONE|DICT|INTERRES
    71   34  104 1    
    72   35   36 2    
    73   37   38 2    
    74   37   39 am   BACKBONE|DICT|INTERRES
    75   39   40 1    
    76   39  105 1    
    77   40   41 1    
    78   40   42 1    
    79   40  106 1    
    80   41  107 1    
    81   41  108 1    
    82   41  109 1    
    83   42   43 2    
    84   42   44 am   BACKBONE|DICT|INTERRES
    85   44   45 1    
    86   44  110 1    
    87   45   46 1    
    88   45   47 1    
    89   45  111 1    
    90   46  112 1    
    91   46  113 1    
    92   46  114 1    
    93   47   48 2    
    94   47   49 am   BACKBONE|DICT|INTERRES
    95   49   50 1    
    96   49  115 1    
    97   50   51 1    
    98   50   52 1    
    99   50  116 1    
   100   51  117 1    
   101   51  118 1    
   102   51  119 1    
   103   52   53 2    
   104   52   54 am   BACKBONE|DICT|INTERRES
   105   54   55 1    
   106   54  120 1    
   107   55   56 1    
   108   55   57 1    
   109   55  121 1    
   110   56  122 1    
   111   56  123 1    
   112   56  124 1    
   113   57   58 2    
   114   57   59 am   BACKBONE|DICT|INTERRES
   115   59   60 1    
   116   59  125 1    
   117   60   61 1    
   118   60   62 1    
   119   60  126 1    
   120   61  127 1    
   121   61  128 1    
   122   61  129 1    
   123   62   63 2    
   124   62   64 am   BACKBONE|DICT|INTERRES
   125   64   65 1    
   126   64  130 1    
   127   65   66 1    
   128   65   69 1    
   129   65  131 1    
   130   66   67 am   BACKBONE|DICT|INTERRES
   131   66   68 2    
   132   67  132 1    
   133   67  133 1    
   134   69   70 1    
   135   69  134 1    
   136   69  135 1    
   137   70   71 1    
   138   71  136 1    
   139   71  137 1    
@<TRIPOS>SUBSTRUCTURE
     1 UNK         1 GROUP             0       ****    0 ROOT    
