@<TRIPOS>MOLECULE
3R136
137   139    1
SMALL
USER_CHARGES


@<TRIPOS>ATOM
      1 CA         27.6621   23.9342   -2.9657 C.3       0 UNK        -0.1979 
      2 C          27.9211   24.2123   -1.4936 C.2       0 UNK         0.4864 
      3 O          27.7149   25.3406   -1.0430 O.2       0 UNK        -0.5359 
      4 N          28.3747   23.2003   -0.7436 N.am      1 UNK        -0.4318 
      5 CA         28.6470   23.2781    0.6950 C.3       1 UNK         0.0824 
      6 C6         29.3754   22.0195    1.2306 C.3       12 UNK        -0.0944 
      7 S7         30.8723   21.5862    0.2818 S.3       12 UNK        -0.2672 
      8 C8         32.1817   21.6421    1.5535 C.3       12 UNK         0.0333 
      9 C9         32.7906   23.0235    1.7923 C.ar      12 UNK        -0.0807 
     10 C10        33.2850   23.3403    3.0641 C.ar      12 UNK        -0.0894 
     11 C11        33.9471   24.5511    3.2902 C.ar      12 UNK        -0.0804 
     12 C12        34.1009   25.4534    2.2373 C.ar      12 UNK        -0.0824 
     13 C13        33.6018   25.1634    0.9671 C.ar      12 UNK        -0.0762 
     14 C14        32.9508   23.9458    0.7484 C.ar      12 UNK        -0.0782 
     15 C15        33.8188   26.1510   -0.1707 C.3       12 UNK         0.0230 
     16 S16        32.8390   27.6693    0.0450 S.3       12 UNK        -0.2608 
     17 C17        31.1876   27.0928   -0.4626 C.3       12 UNK        -0.0989 
     18 CA         30.0575   27.9893    0.1014 C.3       5 UNK         0.0716 
     19 N          28.8797   27.9272   -0.7575 N.am      5 UNK        -0.4135 
     20 C          28.3825   28.9214   -1.5000 C.2       4 UNK         0.5031 
     21 O          28.9065   30.0292   -1.6191 O.2       4 UNK        -0.5229 
     22 CA         27.0690   28.6298   -2.2426 C.3       4 UNK         0.0329 
     23 CB         27.3604   28.0438   -3.6338 C.3       4 UNK        -0.2001 
     24 N          26.2200   27.6974   -1.4989 N.am      4 UNK        -0.4303 
     25 C          25.3228   28.0512   -0.5718 C.2       3 UNK         0.5044 
     26 O          25.0803   29.2155   -0.2542 O.2       3 UNK        -0.5152 
     27 CA         24.5809   26.9074    0.1271 C.3       3 UNK         0.0319 
     28 CB         24.0191   25.8657   -0.8627 C.3       3 UNK        -0.2001 
     29 N          25.4689   26.2696    1.0944 N.am      3 UNK        -0.4354 
     30 C          25.0653   25.6162    2.1918 C.2       2 UNK         0.4964 
     31 O          23.8826   25.4750    2.5085 O.2       2 UNK        -0.5047 
     32 CA         26.1764   25.0413    3.0919 C.3       2 UNK         0.0288 
     33 CB         25.6716   23.9943    4.1082 C.3       2 UNK        -0.2113 
     34 N          27.3140   24.5390    2.3146 N.am      2 UNK        -0.4145 
     35 C          27.3341   23.4976    1.4735 C.2       1 UNK         0.5006 
     36 O          26.3885   22.7258    1.2933 O.2       1 UNK        -0.5103 
     37 C          29.6310   27.5546    1.5146 C.2       5 UNK         0.5055 
     38 O          28.5767   26.9298    1.6695 O.2       5 UNK        -0.5220 
     39 N          30.4411   27.8880    2.5270 N.am      6 UNK        -0.4450 
     40 CA         30.2926   27.5770    3.9590 C.3       6 UNK         0.0367 
     41 CB         30.1861   26.0597    4.2076 C.3       6 UNK        -0.1929 
     42 C          29.1485   28.3343    4.6596 C.2       6 UNK         0.5070 
     43 O          29.3324   28.7955    5.7855 O.2       6 UNK        -0.5237 
     44 N          28.0023   28.4909    3.9827 N.am      7 UNK        -0.4739 
     45 CA         26.9116   29.3885    4.3837 C.3       7 UNK         0.0276 
     46 CB         25.6574   29.0808    3.5513 C.3       7 UNK        -0.1927 
     47 C          27.3044   30.8716    4.2470 C.2       7 UNK         0.5013 
     48 O          26.8019   31.7107    4.9951 O.2       7 UNK        -0.5193 
     49 N          28.2200   31.1490    3.3149 N.am      8 UNK        -0.4253 
     50 CA         28.9427   32.3978    3.1420 C.3       8 UNK         0.0242 
     51 CB         28.1919   33.3117    2.1587 C.3       8 UNK        -0.2000 
     52 C          30.3277   32.0168    2.6087 C.2       8 UNK         0.4948 
     53 O          30.4234   31.0583    1.8369 O.2       8 UNK        -0.5275 
     54 N          31.3524   32.7752    3.0224 N.am      9 UNK        -0.4246 
     55 CA         32.7803   32.6096    2.7102 C.3       9 UNK         0.0261 
     56 CB         33.0256   32.7053    1.1880 C.3       9 UNK        -0.1959 
     57 C          33.4114   31.3304    3.3002 C.2       9 UNK         0.5033 
     58 O          32.7099   30.4335    3.7777 O.2       9 UNK        -0.5390 
     59 N          34.7518   31.2831    3.2581 N.am      10 UNK        -0.4215 
     60 CA         35.6122   30.1854    3.7143 C.3       10 UNK         0.0240 
     61 CB         35.4879   28.9838    2.7515 C.3       10 UNK        -0.1982 
     62 C          35.3663   29.8416    5.1975 C.2       10 UNK         0.4970 
     63 O          35.6275   30.6877    6.0544 O.2       10 UNK        -0.4916 
     64 N          34.8676   28.6304    5.4717 N.am      11 UNK        -0.4279 
     65 CA         34.4470   28.1682    6.8022 C.3       11 UNK         0.1003 
     66 C          33.1144   28.7887    7.3224 C.2       11 UNK         0.5709 
     67 N          32.3700   29.5507    6.5301 N.am      11 UNK        -0.7358 
     68 O          32.7558   28.5807    8.4794 O.2       11 UNK        -0.4999 
     69 C69        34.4473   26.6165    6.8904 C.3       12 UNK        -0.0954 
     70 S70        33.3512   25.8196    5.6651 S.3       12 UNK        -0.2268 
     71 C71        34.5341   24.8830    4.6537 C.3       12 UNK         0.0203 
     72 H72        27.8164   22.8845   -3.2147 H         1 UNK         0.0888 
     73 H73        26.6360   24.1964   -3.2217 H         1 UNK         0.0888 
     74 H74        28.3322   24.5322   -3.5824 H         1 UNK         0.0888 
     75 H75        28.5229   22.2934   -1.1618 H         1 UNK         0.3017 
     76 H76        29.3010   24.1390    0.8542 H         1 UNK         0.0873 
     77 H77        28.7141   21.1509    1.2026 H         1 UNK         0.0745 
     78 H78        29.6395   22.1630    2.2801 H         1 UNK         0.0745 
     79 H79        31.7971   21.2221    2.4843 H         1 UNK         0.0705 
     80 H80        32.9860   20.9783    1.2342 H         1 UNK         0.0705 
     81 H81        33.1825   22.6315    3.8746 H         1 UNK         0.1334 
     82 H82        34.6248   26.3812    2.4008 H         1 UNK         0.1417 
     83 H83        32.5960   23.7066   -0.2444 H         1 UNK         0.1562 
     84 H84        33.5850   25.6994   -1.1361 H         1 UNK         0.0748 
     85 H85        34.8753   26.4205   -0.2090 H         1 UNK         0.0748 
     86 H86        31.0431   26.0456   -0.1883 H         1 UNK         0.0940 
     87 H87        31.1751   27.1154   -1.5538 H         1 UNK         0.0940 
     88 H88        30.4036   29.0230    0.1594 H         1 UNK         0.0703 
     89 H89        28.3730   27.0451   -0.7149 H         1 UNK         0.3081 
     90 H90        26.5397   29.5759   -2.3753 H         1 UNK         0.0719 
     91 H91        27.8976   27.0968   -3.5696 H         1 UNK         0.0809 
     92 H92        26.4399   27.8703   -4.1913 H         1 UNK         0.0809 
     93 H93        27.9728   28.7271   -4.2238 H         1 UNK         0.0809 
     94 H94        26.4275   26.7103   -1.6132 H         1 UNK         0.2990 
     95 H95        23.7408   27.3577    0.6607 H         1 UNK         0.0690 
     96 H96        23.4408   26.3463   -1.6529 H         1 UNK         0.0788 
     97 H97        23.3537   25.1653   -0.3576 H         1 UNK         0.0788 
     98 H98        24.8085   25.2821   -1.3372 H         1 UNK         0.0788 
     99 H99        26.4638   26.3543    0.9173 H         1 UNK         0.2993 
    100 H100       26.5581   25.8868    3.6656 H         1 UNK         0.0949 
    101 H101       26.4874   23.6124    4.7220 H         1 UNK         0.0767 
    102 H102       24.9361   24.4321    4.7841 H         1 UNK         0.0767 
    103 H103       25.1937   23.1463    3.6173 H         1 UNK         0.0767 
    104 H104       28.0978   25.1844    2.2700 H         1 UNK         0.3013 
    105 H105       31.2456   28.4621    2.3043 H         1 UNK         0.3121 
    106 H106       31.2215   27.9173    4.4193 H         1 UNK         0.0774 
    107 H107       29.2236   25.6577    3.9003 H         1 UNK         0.0815 
    108 H108       30.2948   25.8388    5.2699 H         1 UNK         0.0815 
    109 H109       30.9674   25.5125    3.6794 H         1 UNK         0.0815 
    110 H110       27.9404   28.0456    3.0720 H         1 UNK         0.2987 
    111 H111       26.6822   29.2066    5.4360 H         1 UNK         0.0949 
    112 H112       25.8544   29.1444    2.4805 H         1 UNK         0.0806 
    113 H113       25.2745   28.0851    3.7691 H         1 UNK         0.0806 
    114 H114       24.8553   29.7850    3.7770 H         1 UNK         0.0806 
    115 H115       28.6080   30.3874    2.7722 H         1 UNK         0.3010 
    116 H116       29.0496   32.8958    4.1083 H         1 UNK         0.0829 
    117 H117       27.1965   33.5587    2.5284 H         1 UNK         0.0813 
    118 H118       28.7272   34.2504    2.0117 H         1 UNK         0.0813 
    119 H119       28.0790   32.8418    1.1805 H         1 UNK         0.0813 
    120 H120       31.1472   33.5201    3.6738 H         1 UNK         0.3038 
    121 H121       33.2819   33.4547    3.1845 H         1 UNK         0.0769 
    122 H122       32.5499   33.5896    0.7639 H         1 UNK         0.0811 
    123 H123       34.0895   32.7740    0.9597 H         1 UNK         0.0811 
    124 H124       32.6410   31.8326    0.6585 H         1 UNK         0.0811 
    125 H125       35.2413   32.0881    2.8925 H         1 UNK         0.3204 
    126 H126       36.6398   30.5477    3.6561 H         1 UNK         0.0748 
    127 H127       36.1416   28.1636    3.0514 H         1 UNK         0.0771 
    128 H128       34.4650   28.6098    2.7010 H         1 UNK         0.0771 
    129 H129       35.7774   29.2653    1.7389 H         1 UNK         0.0771 
    130 H130       34.6338   28.0180    4.7057 H         1 UNK         0.2980 
    131 H131       35.2059   28.5137    7.5066 H         1 UNK         0.0545 
    132 H132       31.4920   29.9019    6.8772 H         1 UNK         0.3459 
    133 H133       32.6385   29.7445    5.5697 H         1 UNK         0.3459 
    134 H134       34.1455   26.2862    7.8859 H         1 UNK         0.0616 
    135 H135       35.4653   26.2463    6.7622 H         1 UNK         0.0616 
    136 H136       35.4491   25.4632    4.5238 H         1 UNK         0.0634 
    137 H137       34.8179   23.9717    5.1821 H         1 UNK         0.0634 
@<TRIPOS>BOND
     1    1    2 1    
     2    1   72 1    
     3    1   73 1    
     4    1   74 1    
     5    2    3 2    
     6    2    4 am   BACKBONE|DICT|INTERRES
     7    4    5 1    
     8    4   75 1    
     9    5    6 1    
    10    5   35 1    
    11    5   76 1    
    12    6    7 1    
    13    6   77 1    
    14    6   78 1    
    15    7    8 1    
    16    8    9 1    
    17    8   79 1    
    18    8   80 1    
    19    9   10 ar   
    20    9   14 ar   
    21   10   11 ar   
    22   10   81 1    
    23   11   12 ar   
    24   11   71 1    
    25   12   13 ar   
    26   12   82 1    
    27   13   14 ar   
    28   13   15 1    
    29   14   83 1    
    30   15   16 1    
    31   15   84 1    
    32   15   85 1    
    33   16   17 1    
    34   17   18 1    
    35   17   86 1    
    36   17   87 1    
    37   18   19 1    
    38   18   37 1    
    39   18   88 1    
    40   19   20 am   BACKBONE|DICT|INTERRES
    41   19   89 1    
    42   20   21 2    
    43   20   22 1    
    44   22   23 1    
    45   22   24 1    
    46   22   90 1    
    47   23   91 1    
    48   23   92 1    
    49   23   93 1    
    50   24   25 am   BACKBONE|DICT|INTERRES
    51   24   94 1    
    52   25   26 2    
    53   25   27 1    
    54   27   28 1    
    55   27   29 1    
    56   27   95 1    
    57   28   96 1    
    58   28   97 1    
    59   28   98 1    
    60   29   30 am   BACKBONE|DICT|INTERRES
    61   29   99 1    
    62   30   31 2    
    63   30   32 1    
    64   32   33 1    
    65   32   34 1    
    66   32  100 1    
    67   33  101 1    
    68   33  102 1    
    69   33  103 1    
    70   34   35 am   BACKBONE|DICT|INTERRES
    71   34  104 1    
    72   35   36 2    
    73   37   38 2    
    74   37   39 am   BACKBONE|DICT|INTERRES
    75   39   40 1    
    76   39  105 1    
    77   40   41 1    
    78   40   42 1    
    79   40  106 1    
    80   41  107 1    
    81   41  108 1    
    82   41  109 1    
    83   42   43 2    
    84   42   44 am   BACKBONE|DICT|INTERRES
    85   44   45 1    
    86   44  110 1    
    87   45   46 1    
    88   45   47 1    
    89   45  111 1    
    90   46  112 1    
    91   46  113 1    
    92   46  114 1    
    93   47   48 2    
    94   47   49 am   BACKBONE|DICT|INTERRES
    95   49   50 1    
    96   49  115 1    
    97   50   51 1    
    98   50   52 1    
    99   50  116 1    
   100   51  117 1    
   101   51  118 1    
   102   51  119 1    
   103   52   53 2    
   104   52   54 am   BACKBONE|DICT|INTERRES
   105   54   55 1    
   106   54  120 1    
   107   55   56 1    
   108   55   57 1    
   109   55  121 1    
   110   56  122 1    
   111   56  123 1    
   112   56  124 1    
   113   57   58 2    
   114   57   59 am   BACKBONE|DICT|INTERRES
   115   59   60 1    
   116   59  125 1    
   117   60   61 1    
   118   60   62 1    
   119   60  126 1    
   120   61  127 1    
   121   61  128 1    
   122   61  129 1    
   123   62   63 2    
   124   62   64 am   BACKBONE|DICT|INTERRES
   125   64   65 1    
   126   64  130 1    
   127   65   66 1    
   128   65   69 1    
   129   65  131 1    
   130   66   67 am   BACKBONE|DICT|INTERRES
   131   66   68 2    
   132   67  132 1    
   133   67  133 1    
   134   69   70 1    
   135   69  134 1    
   136   69  135 1    
   137   70   71 1    
   138   71  136 1    
   139   71  137 1    
@<TRIPOS>SUBSTRUCTURE
     1 UNK         1 GROUP             0       ****    0 ROOT    
