@<TRIPOS>MOLECULE
3R136
137   139    1
SMALL
USER_CHARGES


@<TRIPOS>ATOM
      1 CA         26.9822   28.8825   -1.0681 C.3       0 UNK        -0.1979 
      2 C          27.5540   27.5920   -0.5044 C.2       0 UNK         0.4864 
      3 O          27.1817   27.1900    0.6011 O.2       0 UNK        -0.5359 
      4 N          28.4603   26.9473   -1.2544 N.am      1 UNK        -0.4318 
      5 CA         29.1490   25.7027   -0.8920 C.3       1 UNK         0.0824 
      6 C6         30.2199   25.3187   -1.9471 C.3       12 UNK        -0.0944 
      7 S7         31.3548   24.0088   -1.3805 S.3       12 UNK        -0.2672 
      8 C8         32.5428   24.9700   -0.3797 C.3       12 UNK         0.0333 
      9 C9         32.7523   24.4646    1.0486 C.ar      12 UNK        -0.0807 
     10 C10        33.8754   24.9197    1.7478 C.ar      12 UNK        -0.0894 
     11 C11        34.1149   24.5129    3.0626 C.ar      12 UNK        -0.0804 
     12 C12        33.2261   23.6332    3.6814 C.ar      12 UNK        -0.0824 
     13 C13        32.0853   23.1875    3.0109 C.ar      12 UNK        -0.0762 
     14 C14        31.8555   23.5988    1.6940 C.ar      12 UNK        -0.0782 
     15 C15        31.0988   22.2788    3.7336 C.3       12 UNK         0.0230 
     16 S16        29.4285   22.9957    3.9073 S.3       12 UNK        -0.2608 
     17 C17        29.7253   24.7412    4.3746 C.3       12 UNK        -0.0989 
     18 CA         29.1459   25.6993    3.2961 C.3       5 UNK         0.0716 
     19 N          27.6888   25.5564    3.1177 N.am      5 UNK        -0.4135 
     20 C          26.7580   25.8924    4.0266 C.2       4 UNK         0.5031 
     21 O          27.0353   26.2764    5.1644 O.2       4 UNK        -0.5229 
     22 CA         25.2749   25.8266    3.6226 C.3       4 UNK         0.0329 
     23 CB         24.4706   26.9930    4.2421 C.3       4 UNK        -0.2001 
     24 N          25.0577   25.7957    2.1719 N.am      4 UNK        -0.4303 
     25 C          23.9278   25.3393    1.6106 C.2       3 UNK         0.5044 
     26 O          23.0096   24.8133    2.2419 O.2       3 UNK        -0.5152 
     27 CA         23.7810   25.5085    0.0915 C.3       3 UNK         0.0319 
     28 CB         23.6276   26.9909   -0.2894 C.3       3 UNK        -0.2001 
     29 N          24.8957   24.9132   -0.6413 N.am      3 UNK        -0.4354 
     30 C          25.1065   23.5942   -0.7665 C.2       2 UNK         0.4964 
     31 O          24.3627   22.7323   -0.2971 O.2       2 UNK        -0.5047 
     32 CA         26.3454   23.1532   -1.5666 C.3       2 UNK         0.0288 
     33 CB         25.9455   22.7308   -2.9901 C.3       2 UNK        -0.2113 
     34 N          27.3830   24.1839   -1.6477 N.am      2 UNK        -0.4145 
     35 C          28.1540   24.5576   -0.6173 C.2       1 UNK         0.5006 
     36 O          28.0652   24.0827    0.5156 O.2       1 UNK        -0.5103 
     37 C          29.5392   27.1838    3.4969 C.2       5 UNK         0.5055 
     38 O          30.4262   27.5026    4.2937 O.2       5 UNK        -0.5220 
     39 N          28.8349   28.0654    2.7733 N.am      6 UNK        -0.4450 
     40 CA         28.8364   29.5167    2.9309 C.3       6 UNK         0.0367 
     41 CB         27.4271   29.9624    3.3630 C.3       6 UNK        -0.1929 
     42 C          29.2994   30.2015    1.6366 C.2       6 UNK         0.5070 
     43 O          28.6811   31.1692    1.1899 O.2       6 UNK        -0.5237 
     44 N          30.3755   29.6816    1.0333 N.am      7 UNK        -0.4739 
     45 CA         30.9589   30.1560   -0.2266 C.3       7 UNK         0.0276 
     46 CB         31.8121   29.0236   -0.8245 C.3       7 UNK        -0.1927 
     47 C          31.7531   31.4678   -0.0554 C.2       7 UNK         0.5013 
     48 O          32.9638   31.4902   -0.2871 O.2       7 UNK        -0.5193 
     49 N          31.0565   32.5296    0.3753 N.am      8 UNK        -0.4253 
     50 CA         31.5365   33.8743    0.7278 C.3       8 UNK         0.0242 
     51 CB         32.2017   34.5874   -0.4673 C.3       8 UNK        -0.2000 
     52 C          32.4361   33.8698    1.9747 C.2       8 UNK         0.4948 
     53 O          32.0552   34.4329    3.0018 O.2       8 UNK        -0.5275 
     54 N          33.5826   33.1874    1.8849 N.am      9 UNK        -0.4246 
     55 CA         34.4414   32.8310    3.0105 C.3       9 UNK         0.0261 
     56 CB         35.8887   32.6761    2.5086 C.3       9 UNK        -0.1959 
     57 C          33.8873   31.5377    3.6278 C.2       9 UNK         0.5033 
     58 O          34.3612   30.4482    3.3013 O.2       9 UNK        -0.5390 
     59 N          32.8301   31.6856    4.4363 N.am      10 UNK        -0.4215 
     60 CA         32.0562   30.5902    5.0198 C.3       10 UNK         0.0240 
     61 CB         30.8253   31.1706    5.7365 C.3       10 UNK        -0.1982 
     62 C          32.8776   29.7189    5.9811 C.2       10 UNK         0.4970 
     63 O          33.6566   30.2533    6.7746 O.2       10 UNK        -0.4916 
     64 N          32.6533   28.4043    5.9055 N.am      11 UNK        -0.4279 
     65 CA         33.3134   27.3898    6.7409 C.3       11 UNK         0.1003 
     66 C          32.4461   26.9316    7.9480 C.2       11 UNK         0.5709 
     67 N          31.1981   27.3672    8.0792 N.am      11 UNK        -0.7358 
     68 O          32.9216   26.1786    8.7946 O.2       11 UNK        -0.4999 
     69 C69        33.7744   26.1793    5.8904 C.3       12 UNK        -0.0954 
     70 S70        34.9822   26.6447    4.6029 S.3       12 UNK        -0.2268 
     71 C71        35.3239   25.0356    3.8236 C.3       12 UNK         0.0203 
     72 H72        26.7689   29.5847   -0.2625 H         1 UNK         0.0888 
     73 H73        27.6796   29.3632   -1.7537 H         1 UNK         0.0888 
     74 H74        26.0540   28.6843   -1.6026 H         1 UNK         0.0888 
     75 H75        28.7037   27.3328   -2.1560 H         1 UNK         0.3017 
     76 H76        29.6678   25.9076    0.0458 H         1 UNK         0.0873 
     77 H77        30.8181   26.1880   -2.2220 H         1 UNK         0.0745 
     78 H78        29.7547   24.9886   -2.8776 H         1 UNK         0.0745 
     79 H79        32.2286   26.0117   -0.3214 H         1 UNK         0.0705 
     80 H80        33.4975   24.9687   -0.9081 H         1 UNK         0.0705 
     81 H81        34.5637   25.6052    1.2716 H         1 UNK         0.1334 
     82 H82        33.4089   23.3210    4.7007 H         1 UNK         0.1417 
     83 H83        30.9617   23.2530    1.1934 H         1 UNK         0.1562 
     84 H84        31.4655   22.0268    4.7298 H         1 UNK         0.0748 
     85 H85        31.0214   21.3352    3.1919 H         1 UNK         0.0748 
     86 H86        30.7915   24.9149    4.5153 H         1 UNK         0.0940 
     87 H87        29.2715   24.9270    5.3488 H         1 UNK         0.0940 
     88 H88        29.5966   25.4184    2.3449 H         1 UNK         0.0703 
     89 H89        27.4056   25.1907    2.2158 H         1 UNK         0.3081 
     90 H90        24.9029   24.8914    4.0463 H         1 UNK         0.0719 
     91 H91        24.5683   27.0133    5.3283 H         1 UNK         0.0809 
     92 H92        24.8141   27.9567    3.8644 H         1 UNK         0.0809 
     93 H93        23.4054   26.9106    4.0271 H         1 UNK         0.0809 
     94 H94        25.7613   26.2418    1.5883 H         1 UNK         0.2990 
     95 H95        22.8676   24.9933   -0.2144 H         1 UNK         0.0690 
     96 H96        24.4877   27.5854    0.0170 H         1 UNK         0.0788 
     97 H97        22.7506   27.4237    0.1940 H         1 UNK         0.0788 
     98 H98        23.4968   27.1148   -1.3645 H         1 UNK         0.0788 
     99 H99        25.5655   25.5460   -1.0503 H         1 UNK         0.2993 
    100 H100       26.7673   22.2843   -1.0562 H         1 UNK         0.0949 
    101 H101       25.5237   23.5627   -3.5558 H         1 UNK         0.0767 
    102 H102       26.8011   22.3451   -3.5449 H         1 UNK         0.0767 
    103 H103       25.1947   21.9395   -2.9660 H         1 UNK         0.0767 
    104 H104       27.5079   24.6359   -2.5420 H         1 UNK         0.3013 
    105 H105       28.1720   27.7021    2.0903 H         1 UNK         0.3121 
    106 H106       29.5301   29.8094    3.7148 H         1 UNK         0.0774 
    107 H107       27.3913   31.0381    3.5405 H         1 UNK         0.0815 
    108 H108       26.6807   29.7288    2.6025 H         1 UNK         0.0815 
    109 H109       27.1252   29.4722    4.2890 H         1 UNK         0.0815 
    110 H110       30.8427   28.9071    1.4823 H         1 UNK         0.2987 
    111 H111       30.1483   30.3644   -0.9287 H         1 UNK         0.0949 
    112 H112       32.2374   29.3175   -1.7851 H         1 UNK         0.0806 
    113 H113       32.6407   28.7510   -0.1693 H         1 UNK         0.0806 
    114 H114       31.2113   28.1332   -0.9967 H         1 UNK         0.0806 
    115 H115       30.0777   32.3510    0.5902 H         1 UNK         0.3010 
    116 H116       30.6444   34.4464    0.9884 H         1 UNK         0.0829 
    117 H117       31.5216   34.6492   -1.3168 H         1 UNK         0.0813 
    118 H118       32.4807   35.6079   -0.2018 H         1 UNK         0.0813 
    119 H119       33.1080   34.0833   -0.8030 H         1 UNK         0.0813 
    120 H120       33.7283   32.6640    1.0249 H         1 UNK         0.3038 
    121 H121       34.4238   33.6198    3.7658 H         1 UNK         0.0769 
    122 H122       36.2698   33.6150    2.1070 H         1 UNK         0.0811 
    123 H123       36.5517   32.3765    3.3212 H         1 UNK         0.0811 
    124 H124       35.9694   31.9210    1.7253 H         1 UNK         0.0811 
    125 H125       32.5031   32.6239    4.6237 H         1 UNK         0.3204 
    126 H126       31.7258   29.9633    4.1902 H         1 UNK         0.0748 
    127 H127       30.2140   31.7702    5.0615 H         1 UNK         0.0771 
    128 H128       30.1901   30.3749    6.1285 H         1 UNK         0.0771 
    129 H129       31.1116   31.8029    6.5782 H         1 UNK         0.0771 
    130 H130       31.9528   28.0533    5.2556 H         1 UNK         0.2980 
    131 H131       34.2106   27.8249    7.1848 H         1 UNK         0.0545 
    132 H132       30.6515   27.0672    8.8707 H         1 UNK         0.3459 
    133 H133       30.7944   27.9762    7.3863 H         1 UNK         0.3459 
    134 H134       34.2345   25.4139    6.5181 H         1 UNK         0.0616 
    135 H135       32.9087   25.7185    5.4150 H         1 UNK         0.0616 
    136 H136       35.6391   24.3213    4.5858 H         1 UNK         0.0634 
    137 H137       36.1680   25.1472    3.1416 H         1 UNK         0.0634 
@<TRIPOS>BOND
     1    1    2 1    
     2    1   72 1    
     3    1   73 1    
     4    1   74 1    
     5    2    3 2    
     6    2    4 am   BACKBONE|DICT|INTERRES
     7    4    5 1    
     8    4   75 1    
     9    5    6 1    
    10    5   35 1    
    11    5   76 1    
    12    6    7 1    
    13    6   77 1    
    14    6   78 1    
    15    7    8 1    
    16    8    9 1    
    17    8   79 1    
    18    8   80 1    
    19    9   10 ar   
    20    9   14 ar   
    21   10   11 ar   
    22   10   81 1    
    23   11   12 ar   
    24   11   71 1    
    25   12   13 ar   
    26   12   82 1    
    27   13   14 ar   
    28   13   15 1    
    29   14   83 1    
    30   15   16 1    
    31   15   84 1    
    32   15   85 1    
    33   16   17 1    
    34   17   18 1    
    35   17   86 1    
    36   17   87 1    
    37   18   19 1    
    38   18   37 1    
    39   18   88 1    
    40   19   20 am   BACKBONE|DICT|INTERRES
    41   19   89 1    
    42   20   21 2    
    43   20   22 1    
    44   22   23 1    
    45   22   24 1    
    46   22   90 1    
    47   23   91 1    
    48   23   92 1    
    49   23   93 1    
    50   24   25 am   BACKBONE|DICT|INTERRES
    51   24   94 1    
    52   25   26 2    
    53   25   27 1    
    54   27   28 1    
    55   27   29 1    
    56   27   95 1    
    57   28   96 1    
    58   28   97 1    
    59   28   98 1    
    60   29   30 am   BACKBONE|DICT|INTERRES
    61   29   99 1    
    62   30   31 2    
    63   30   32 1    
    64   32   33 1    
    65   32   34 1    
    66   32  100 1    
    67   33  101 1    
    68   33  102 1    
    69   33  103 1    
    70   34   35 am   BACKBONE|DICT|INTERRES
    71   34  104 1    
    72   35   36 2    
    73   37   38 2    
    74   37   39 am   BACKBONE|DICT|INTERRES
    75   39   40 1    
    76   39  105 1    
    77   40   41 1    
    78   40   42 1    
    79   40  106 1    
    80   41  107 1    
    81   41  108 1    
    82   41  109 1    
    83   42   43 2    
    84   42   44 am   BACKBONE|DICT|INTERRES
    85   44   45 1    
    86   44  110 1    
    87   45   46 1    
    88   45   47 1    
    89   45  111 1    
    90   46  112 1    
    91   46  113 1    
    92   46  114 1    
    93   47   48 2    
    94   47   49 am   BACKBONE|DICT|INTERRES
    95   49   50 1    
    96   49  115 1    
    97   50   51 1    
    98   50   52 1    
    99   50  116 1    
   100   51  117 1    
   101   51  118 1    
   102   51  119 1    
   103   52   53 2    
   104   52   54 am   BACKBONE|DICT|INTERRES
   105   54   55 1    
   106   54  120 1    
   107   55   56 1    
   108   55   57 1    
   109   55  121 1    
   110   56  122 1    
   111   56  123 1    
   112   56  124 1    
   113   57   58 2    
   114   57   59 am   BACKBONE|DICT|INTERRES
   115   59   60 1    
   116   59  125 1    
   117   60   61 1    
   118   60   62 1    
   119   60  126 1    
   120   61  127 1    
   121   61  128 1    
   122   61  129 1    
   123   62   63 2    
   124   62   64 am   BACKBONE|DICT|INTERRES
   125   64   65 1    
   126   64  130 1    
   127   65   66 1    
   128   65   69 1    
   129   65  131 1    
   130   66   67 am   BACKBONE|DICT|INTERRES
   131   66   68 2    
   132   67  132 1    
   133   67  133 1    
   134   69   70 1    
   135   69  134 1    
   136   69  135 1    
   137   70   71 1    
   138   71  136 1    
   139   71  137 1    
@<TRIPOS>SUBSTRUCTURE
     1 UNK         1 GROUP             0       ****    0 ROOT    
