@<TRIPOS>MOLECULE
3R136
137   139    1
SMALL
USER_CHARGES


@<TRIPOS>ATOM
      1 CA         32.2756   25.3041   -3.5119 C.3       0 UNK        -0.1979 
      2 C          31.0633   25.9475   -2.8557 C.2       0 UNK         0.4864 
      3 O          30.5468   26.9419   -3.3654 O.2       0 UNK        -0.5359 
      4 N          30.5995   25.3835   -1.7321 N.am      1 UNK        -0.4318 
      5 CA         29.4594   25.8804   -0.9512 C.3       1 UNK         0.0824 
      6 C6         29.6192   25.5352    0.5486 C.3       12 UNK        -0.0944 
      7 S7         29.5375   23.7542    0.9526 S.3       12 UNK        -0.2672 
      8 C8         30.6802   23.6537    2.3718 C.3       12 UNK         0.0333 
      9 C9         30.2599   24.5853    3.5009 C.ar      12 UNK        -0.0807 
     10 C10        30.9508   25.7821    3.7229 C.ar      12 UNK        -0.0894 
     11 C11        30.5248   26.6726    4.7120 C.ar      12 UNK        -0.0804 
     12 C12        29.4132   26.3506    5.4943 C.ar      12 UNK        -0.0824 
     13 C13        28.7244   25.1515    5.2931 C.ar      12 UNK        -0.0762 
     14 C14        29.1585   24.2662    4.3015 C.ar      12 UNK        -0.0782 
     15 C15        27.4878   24.8366    6.1225 C.3       12 UNK         0.0230 
     16 S16        25.9552   24.9627    5.1432 S.3       12 UNK        -0.2608 
     17 C17        26.0485   26.6640    4.4770 C.3       12 UNK        -0.0989 
     18 CA         26.5461   26.6845    3.0029 C.3       5 UNK         0.0716 
     19 N          25.7367   25.8605    2.0964 N.am      5 UNK        -0.4135 
     20 C          24.4467   26.0503    1.7779 C.2       4 UNK         0.5031 
     21 O          23.7436   26.9410    2.2571 O.2       4 UNK        -0.5229 
     22 CA         23.8366   25.1111    0.7244 C.3       4 UNK         0.0329 
     23 CB         23.3239   25.9188   -0.4816 C.3       4 UNK        -0.2001 
     24 N          24.8086   24.1344    0.2340 N.am      4 UNK        -0.4303 
     25 C          24.7976   22.8168    0.4785 C.2       3 UNK         0.5044 
     26 O          23.9716   22.2662    1.2079 O.2       3 UNK        -0.5152 
     27 CA         25.9036   21.9705   -0.1943 C.3       3 UNK         0.0319 
     28 CB         25.3944   20.5853   -0.6454 C.3       3 UNK        -0.2001 
     29 N          26.5915   22.6667   -1.2923 N.am      3 UNK        -0.4354 
     30 C          26.0532   23.1291   -2.4340 C.2       2 UNK         0.4964 
     31 O          24.9032   22.8800   -2.7976 O.2       2 UNK        -0.5047 
     32 CA         26.9282   24.0681   -3.2910 C.3       2 UNK         0.0288 
     33 CB         26.0964   25.1937   -3.9437 C.3       2 UNK        -0.2113 
     34 N          28.0826   24.6391   -2.5798 N.am      2 UNK        -0.4145 
     35 C          28.0838   25.4417   -1.5010 C.2       1 UNK         0.5006 
     36 O          27.0630   25.8001   -0.9044 O.2       1 UNK        -0.5103 
     37 C          26.7515   28.1089    2.4363 C.2       5 UNK         0.5055 
     38 O          26.7779   29.0797    3.1939 O.2       5 UNK        -0.5220 
     39 N          26.8761   28.2075    1.1025 N.am      6 UNK        -0.4450 
     40 CA         26.9656   29.4687    0.3615 C.3       6 UNK         0.0367 
     41 CB         26.4738   29.2239   -1.0757 C.3       6 UNK        -0.1929 
     42 C          28.3717   30.0984    0.3452 C.2       6 UNK         0.5070 
     43 O          28.5009   31.2505   -0.0712 O.2       6 UNK        -0.5237 
     44 N          29.4006   29.3438    0.7524 N.am      7 UNK        -0.4739 
     45 CA         30.7950   29.7937    0.7736 C.3       7 UNK         0.0276 
     46 CB         31.7210   28.5660    0.7429 C.3       7 UNK        -0.1927 
     47 C          31.1114   30.6686    1.9988 C.2       7 UNK         0.5013 
     48 O          30.3842   30.6360    2.9937 O.2       7 UNK        -0.5193 
     49 N          32.2296   31.3956    1.9053 N.am      8 UNK        -0.4253 
     50 CA         32.8592   32.1285    3.0006 C.3       8 UNK         0.0242 
     51 CB         32.9654   33.6209    2.6230 C.3       8 UNK        -0.2000 
     52 C          34.2058   31.4435    3.2830 C.2       8 UNK         0.4948 
     53 O          34.2017   30.2881    3.7129 O.2       8 UNK        -0.5275 
     54 N          35.3245   32.1362    3.0165 N.am      9 UNK        -0.4246 
     55 CA         36.7097   31.6657    3.1475 C.3       9 UNK         0.0261 
     56 CB         37.0322   30.6227    2.0520 C.3       9 UNK        -0.1959 
     57 C          37.0068   31.1852    4.5795 C.2       9 UNK         0.5033 
     58 O          37.0838   32.0192    5.4833 O.2       9 UNK        -0.5390 
     59 N          37.1145   29.8633    4.7742 N.am      10 UNK        -0.4215 
     60 CA         37.2860   29.2055    6.0734 C.3       10 UNK         0.0240 
     61 CB         37.4704   27.6949    5.8550 C.3       10 UNK        -0.1982 
     62 C          36.1377   29.4690    7.0669 C.2       10 UNK         0.4970 
     63 O          36.3793   29.4392    8.2744 O.2       10 UNK        -0.4916 
     64 N          34.9302   29.7422    6.5542 N.am      11 UNK        -0.4279 
     65 CA         33.7733   30.1814    7.3480 C.3       11 UNK         0.1003 
     66 C          33.8040   31.6923    7.7280 C.2       11 UNK         0.5709 
     67 N          34.7552   32.4939    7.2602 N.am      11 UNK        -0.7358 
     68 O          32.9462   32.1496    8.4796 O.2       11 UNK        -0.4999 
     69 C69        32.4320   29.8040    6.6689 C.3       12 UNK        -0.0954 
     70 S70        32.2355   28.0076    6.4280 S.3       12 UNK        -0.2268 
     71 C71        31.2273   28.0051    4.9170 C.3       12 UNK         0.0203 
     72 H72        32.0315   24.9899   -4.5263 H         1 UNK         0.0888 
     73 H73        33.0960   26.0193   -3.5649 H         1 UNK         0.0888 
     74 H74        32.6230   24.4307   -2.9603 H         1 UNK         0.0888 
     75 H75        31.0565   24.5631   -1.3572 H         1 UNK         0.3017 
     76 H76        29.4581   26.9699   -1.0257 H         1 UNK         0.0873 
     77 H77        30.5788   25.9182    0.8922 H         1 UNK         0.0745 
     78 H78        28.8686   26.0545    1.1414 H         1 UNK         0.0745 
     79 H79        30.7051   22.6259    2.7365 H         1 UNK         0.0705 
     80 H80        31.6924   23.8841    2.0356 H         1 UNK         0.0705 
     81 H81        31.8063   26.0311    3.1106 H         1 UNK         0.1334 
     82 H82        29.0780   27.0457    6.2523 H         1 UNK         0.1417 
     83 H83        28.6151   23.3472    4.1272 H         1 UNK         0.1562 
     84 H84        27.4163   25.5035    6.9832 H         1 UNK         0.0748 
     85 H85        27.5697   23.8260    6.5252 H         1 UNK         0.0748 
     86 H86        26.6995   27.2626    5.1159 H         1 UNK         0.0940 
     87 H87        25.0605   27.1198    4.5562 H         1 UNK         0.0940 
     88 H88        27.5389   26.2376    2.9976 H         1 UNK         0.0703 
     89 H89        26.2173   25.0906    1.6554 H         1 UNK         0.3081 
     90 H90        22.9881   24.6064    1.1905 H         1 UNK         0.0719 
     91 H91        22.5611   26.6378   -0.1797 H         1 UNK         0.0809 
     92 H92        24.1282   26.4769   -0.9633 H         1 UNK         0.0809 
     93 H93        22.8749   25.2671   -1.2315 H         1 UNK         0.0809 
     94 H94        25.5358   24.5061   -0.3684 H         1 UNK         0.2990 
     95 H95        26.6603   21.8074    0.5747 H         1 UNK         0.0690 
     96 H96        26.1886   20.0036   -1.1133 H         1 UNK         0.0788 
     97 H97        24.5725   20.6660   -1.3572 H         1 UNK         0.0788 
     98 H98        25.0295   20.0069    0.2043 H         1 UNK         0.0788 
     99 H99        27.5500   22.9236   -1.0995 H         1 UNK         0.2993 
    100 H100       27.3356   23.4484   -4.0913 H         1 UNK         0.0949 
    101 H101       25.5938   25.8106   -3.1978 H         1 UNK         0.0767 
    102 H102       26.7220   25.8471   -4.5519 H         1 UNK         0.0767 
    103 H103       25.3261   24.7855   -4.5992 H         1 UNK         0.0767 
    104 H104       28.9858   24.3960   -2.9619 H         1 UNK         0.3013 
    105 H105       26.8231   27.3635    0.5427 H         1 UNK         0.3121 
    106 H106       26.2944   30.1929    0.8286 H         1 UNK         0.0774 
    107 H107       27.1178   28.5252   -1.6108 H         1 UNK         0.0815 
    108 H108       25.4605   28.8220   -1.0868 H         1 UNK         0.0815 
    109 H109       26.4579   30.1529   -1.6471 H         1 UNK         0.0815 
    110 H110       29.2008   28.4454    1.1618 H         1 UNK         0.2987 
    111 H111       30.9818   30.3874   -0.1246 H         1 UNK         0.0949 
    112 H112       31.5594   27.9670   -0.1527 H         1 UNK         0.0806 
    113 H113       32.7713   28.8606    0.7398 H         1 UNK         0.0806 
    114 H114       31.5706   27.9307    1.6148 H         1 UNK         0.0806 
    115 H115       32.7784   31.3205    1.0602 H         1 UNK         0.3010 
    116 H116       32.2662   32.0496    3.9141 H         1 UNK         0.0829 
    117 H117       33.5251   33.7779    1.6999 H         1 UNK         0.0813 
    118 H118       33.4467   34.1969    3.4148 H         1 UNK         0.0813 
    119 H119       31.9746   34.0521    2.4780 H         1 UNK         0.0813 
    120 H120       35.2199   33.0903    2.7009 H         1 UNK         0.3038 
    121 H121       37.3531   32.5305    2.9777 H         1 UNK         0.0769 
    122 H122       38.0632   30.2745    2.1291 H         1 UNK         0.0811 
    123 H123       36.9195   31.0580    1.0589 H         1 UNK         0.0811 
    124 H124       36.3797   29.7501    2.0984 H         1 UNK         0.0811 
    125 H125       36.9928   29.2600    3.9737 H         1 UNK         0.3204 
    126 H126       38.1992   29.6017    6.5221 H         1 UNK         0.0748 
    127 H127       36.5943   27.2456    5.3850 H         1 UNK         0.0771 
    128 H128       38.3356   27.4862    5.2254 H         1 UNK         0.0771 
    129 H129       37.6309   27.1801    6.8035 H         1 UNK         0.0771 
    130 H130       34.8058   29.7634    5.5466 H         1 UNK         0.2980 
    131 H131       33.8036   29.6480    8.3000 H         1 UNK         0.0545 
    132 H132       34.7492   33.4634    7.5333 H         1 UNK         0.3459 
    133 H133       35.4975   32.1496    6.6607 H         1 UNK         0.3459 
    134 H134       32.3426   30.3110    5.7071 H         1 UNK         0.0616 
    135 H135       31.5852   30.1404    7.2700 H         1 UNK         0.0616 
    136 H136       31.8620   28.2535    4.0651 H         1 UNK         0.0634 
    137 H137       30.4742   28.7918    4.9829 H         1 UNK         0.0634 
@<TRIPOS>BOND
     1    1    2 1    
     2    1   72 1    
     3    1   73 1    
     4    1   74 1    
     5    2    3 2    
     6    2    4 am   BACKBONE|DICT|INTERRES
     7    4    5 1    
     8    4   75 1    
     9    5    6 1    
    10    5   35 1    
    11    5   76 1    
    12    6    7 1    
    13    6   77 1    
    14    6   78 1    
    15    7    8 1    
    16    8    9 1    
    17    8   79 1    
    18    8   80 1    
    19    9   10 ar   
    20    9   14 ar   
    21   10   11 ar   
    22   10   81 1    
    23   11   12 ar   
    24   11   71 1    
    25   12   13 ar   
    26   12   82 1    
    27   13   14 ar   
    28   13   15 1    
    29   14   83 1    
    30   15   16 1    
    31   15   84 1    
    32   15   85 1    
    33   16   17 1    
    34   17   18 1    
    35   17   86 1    
    36   17   87 1    
    37   18   19 1    
    38   18   37 1    
    39   18   88 1    
    40   19   20 am   BACKBONE|DICT|INTERRES
    41   19   89 1    
    42   20   21 2    
    43   20   22 1    
    44   22   23 1    
    45   22   24 1    
    46   22   90 1    
    47   23   91 1    
    48   23   92 1    
    49   23   93 1    
    50   24   25 am   BACKBONE|DICT|INTERRES
    51   24   94 1    
    52   25   26 2    
    53   25   27 1    
    54   27   28 1    
    55   27   29 1    
    56   27   95 1    
    57   28   96 1    
    58   28   97 1    
    59   28   98 1    
    60   29   30 am   BACKBONE|DICT|INTERRES
    61   29   99 1    
    62   30   31 2    
    63   30   32 1    
    64   32   33 1    
    65   32   34 1    
    66   32  100 1    
    67   33  101 1    
    68   33  102 1    
    69   33  103 1    
    70   34   35 am   BACKBONE|DICT|INTERRES
    71   34  104 1    
    72   35   36 2    
    73   37   38 2    
    74   37   39 am   BACKBONE|DICT|INTERRES
    75   39   40 1    
    76   39  105 1    
    77   40   41 1    
    78   40   42 1    
    79   40  106 1    
    80   41  107 1    
    81   41  108 1    
    82   41  109 1    
    83   42   43 2    
    84   42   44 am   BACKBONE|DICT|INTERRES
    85   44   45 1    
    86   44  110 1    
    87   45   46 1    
    88   45   47 1    
    89   45  111 1    
    90   46  112 1    
    91   46  113 1    
    92   46  114 1    
    93   47   48 2    
    94   47   49 am   BACKBONE|DICT|INTERRES
    95   49   50 1    
    96   49  115 1    
    97   50   51 1    
    98   50   52 1    
    99   50  116 1    
   100   51  117 1    
   101   51  118 1    
   102   51  119 1    
   103   52   53 2    
   104   52   54 am   BACKBONE|DICT|INTERRES
   105   54   55 1    
   106   54  120 1    
   107   55   56 1    
   108   55   57 1    
   109   55  121 1    
   110   56  122 1    
   111   56  123 1    
   112   56  124 1    
   113   57   58 2    
   114   57   59 am   BACKBONE|DICT|INTERRES
   115   59   60 1    
   116   59  125 1    
   117   60   61 1    
   118   60   62 1    
   119   60  126 1    
   120   61  127 1    
   121   61  128 1    
   122   61  129 1    
   123   62   63 2    
   124   62   64 am   BACKBONE|DICT|INTERRES
   125   64   65 1    
   126   64  130 1    
   127   65   66 1    
   128   65   69 1    
   129   65  131 1    
   130   66   67 am   BACKBONE|DICT|INTERRES
   131   66   68 2    
   132   67  132 1    
   133   67  133 1    
   134   69   70 1    
   135   69  134 1    
   136   69  135 1    
   137   70   71 1    
   138   71  136 1    
   139   71  137 1    
@<TRIPOS>SUBSTRUCTURE
     1 UNK         1 GROUP             0       ****    0 ROOT    
