@<TRIPOS>MOLECULE
3R136
137   139    1
SMALL
USER_CHARGES


@<TRIPOS>ATOM
      1 CA         27.5075   20.1196   -1.5744 C.3       0 UNK        -0.1979 
      2 C          28.2861   21.3505   -1.1351 C.2       0 UNK         0.4864 
      3 O          27.8038   22.1080   -0.2934 O.2       0 UNK        -0.5359 
      4 N          29.4843   21.5558   -1.7004 N.am      1 UNK        -0.4318 
      5 CA         30.4015   22.6780   -1.4583 C.3       1 UNK         0.0824 
      6 C6         30.7664   22.8731    0.0395 C.3       12 UNK        -0.0944 
      7 S7         32.3905   23.6674    0.2696 S.3       12 UNK        -0.2672 
      8 C8         32.9942   22.8208    1.7636 C.3       12 UNK         0.0333 
      9 C9         32.3246   23.3531    3.0228 C.ar      12 UNK        -0.0807 
     10 C10        32.9394   24.3667    3.7650 C.ar      12 UNK        -0.0894 
     11 C11        32.3502   24.8469    4.9384 C.ar      12 UNK        -0.0804 
     12 C12        31.1361   24.3020    5.3661 C.ar      12 UNK        -0.0824 
     13 C13        30.4971   23.3079    4.6202 C.ar      12 UNK        -0.0762 
     14 C14        31.1032   22.8259    3.4566 C.ar      12 UNK        -0.0782 
     15 C15        29.1505   22.7627    5.0787 C.3       12 UNK         0.0230 
     16 S16        27.7731   23.2612    3.9894 S.3       12 UNK        -0.2608 
     17 C17        27.8990   25.0834    3.9620 C.3       12 UNK        -0.0989 
     18 CA         27.6730   25.6230    2.5176 C.3       5 UNK         0.0716 
     19 N          26.2551   25.6980    2.1359 N.am      5 UNK        -0.4135 
     20 C          25.2802   26.3995    2.7381 C.2       4 UNK         0.5031 
     21 O          25.4401   27.0686    3.7615 O.2       4 UNK        -0.5229 
     22 CA         23.8754   26.3135    2.1010 C.3       4 UNK         0.0329 
     23 CB         22.9088   27.4079    2.6053 C.3       4 UNK        -0.2001 
     24 N          23.9091   26.2662    0.6339 N.am      4 UNK        -0.4303 
     25 C          24.3500   27.2194   -0.2004 C.2       3 UNK         0.5044 
     26 O          24.7087   28.3464    0.1441 O.2       3 UNK        -0.5152 
     27 CA         24.4399   26.8182   -1.6844 C.3       3 UNK         0.0319 
     28 CB         23.7826   27.8718   -2.5928 C.3       3 UNK        -0.2001 
     29 N          25.8297   26.6149   -2.1044 N.am      3 UNK        -0.4354 
     30 C          26.6718   25.7181   -1.5729 C.2       2 UNK         0.4964 
     31 O          26.3585   24.9290   -0.6766 O.2       2 UNK        -0.5047 
     32 CA         28.1011   25.7060   -2.1292 C.3       2 UNK         0.0288 
     33 CB         28.8879   26.9569   -1.6879 C.3       2 UNK        -0.2113 
     34 N          28.7667   24.4945   -1.6600 N.am      2 UNK        -0.4145 
     35 C          29.9086   23.9788   -2.1244 C.2       1 UNK         0.5006 
     36 O          30.5548   24.4689   -3.0526 O.2       1 UNK        -0.5103 
     37 C          28.4286   26.9369    2.2167 C.2       5 UNK         0.5055 
     38 O          27.8358   27.9172    1.7605 O.2       5 UNK        -0.5220 
     39 N          29.7551   26.9211    2.4133 N.am      6 UNK        -0.4450 
     40 CA         30.6924   27.9903    2.0458 C.3       6 UNK         0.0367 
     41 CB         32.1054   27.3911    1.9504 C.3       6 UNK        -0.1929 
     42 C          30.6426   29.2261    2.9704 C.2       6 UNK         0.5070 
     43 O          31.6911   29.7295    3.3853 O.2       6 UNK        -0.5237 
     44 N          29.4303   29.7137    3.2576 N.am      7 UNK        -0.4739 
     45 CA         29.1511   30.9296    4.0205 C.3       7 UNK         0.0276 
     46 CB         27.6310   31.0851    4.1845 C.3       7 UNK        -0.1927 
     47 C          29.7613   32.1599    3.3303 C.2       7 UNK         0.5013 
     48 O          29.4826   32.3914    2.1521 O.2       7 UNK        -0.5193 
     49 N          30.6343   32.8738    4.0513 N.am      8 UNK        -0.4253 
     50 CA         31.4854   33.9963    3.6305 C.3       8 UNK         0.0242 
     51 CB         30.6597   35.1676    3.0620 C.3       8 UNK        -0.2000 
     52 C          32.6321   33.6015    2.6790 C.2       8 UNK         0.4948 
     53 O          33.6801   34.2473    2.7160 O.2       8 UNK        -0.5275 
     54 N          32.4365   32.5581    1.8619 N.am      9 UNK        -0.4246 
     55 CA         33.4289   32.0017    0.9421 C.3       9 UNK         0.0261 
     56 CB         32.7405   31.0311   -0.0312 C.3       9 UNK        -0.1959 
     57 C          34.6048   31.3187    1.6617 C.2       9 UNK         0.5033 
     58 O          35.7451   31.4845    1.2247 O.2       9 UNK        -0.5390 
     59 N          34.3187   30.5792    2.7422 N.am      10 UNK        -0.4215 
     60 CA         35.3260   29.9037    3.5667 C.3       10 UNK         0.0240 
     61 CB         35.5802   28.4814    3.0357 C.3       10 UNK        -0.1982 
     62 C          34.9679   29.8656    5.0601 C.2       10 UNK         0.4970 
     63 O          35.8858   29.7871    5.8780 O.2       10 UNK        -0.4916 
     64 N          33.6763   29.9090    5.4050 N.am      11 UNK        -0.4279 
     65 CA         33.1756   29.7987    6.7813 C.3       11 UNK         0.1003 
     66 C          31.9264   30.6918    7.0185 C.2       11 UNK         0.5709 
     67 N          31.1145   30.4132    8.0293 N.am      11 UNK        -0.7358 
     68 O          31.7057   31.6789    6.3208 O.2       11 UNK        -0.4999 
     69 C69        33.0314   28.3153    7.2281 C.3       12 UNK        -0.0954 
     70 S70        31.9405   27.3237    6.1494 S.3       12 UNK        -0.2268 
     71 C71        33.0424   25.9263    5.7607 C.3       12 UNK         0.0203 
     72 H72        26.5505   20.4157   -2.0031 H         1 UNK         0.0888 
     73 H73        28.0487   19.5380   -2.3204 H         1 UNK         0.0888 
     74 H74        27.3126   19.4751   -0.7177 H         1 UNK         0.0888 
     75 H75        29.8027   20.9005   -2.4014 H         1 UNK         0.3017 
     76 H76        31.3156   22.3926   -1.9822 H         1 UNK         0.0873 
     77 H77        30.0089   23.4446    0.5791 H         1 UNK         0.0745 
     78 H78        30.7986   21.8958    0.5221 H         1 UNK         0.0745 
     79 H79        34.0738   22.9646    1.8295 H         1 UNK         0.0705 
     80 H80        32.8419   21.7441    1.6751 H         1 UNK         0.0705 
     81 H81        33.8833   24.7758    3.4308 H         1 UNK         0.1334 
     82 H82        30.6801   24.6676    6.2762 H         1 UNK         0.1417 
     83 H83        30.6156   22.0464    2.8877 H         1 UNK         0.1562 
     84 H84        28.9275   23.0876    6.0963 H         1 UNK         0.0748 
     85 H85        29.1968   21.6733    5.1117 H         1 UNK         0.0748 
     86 H86        28.8681   25.3822    4.3558 H         1 UNK         0.0940 
     87 H87        27.1814   25.4927    4.6724 H         1 UNK         0.0940 
     88 H88        28.1099   24.9082    1.8174 H         1 UNK         0.0703 
     89 H89        26.0400   25.2511    1.2496 H         1 UNK         0.3081 
     90 H90        23.4678   25.3532    2.4202 H         1 UNK         0.0719 
     91 H91        23.2854   28.4098    2.3972 H         1 UNK         0.0809 
     92 H92        21.9262   27.3148    2.1432 H         1 UNK         0.0809 
     93 H93        22.7663   27.3350    3.6842 H         1 UNK         0.0809 
     94 H94        23.6694   25.3711    0.2291 H         1 UNK         0.2990 
     95 H95        23.9077   25.8753   -1.8282 H         1 UNK         0.0690 
     96 H96        23.7764   27.5507   -3.6345 H         1 UNK         0.0788 
     97 H97        24.2988   28.8315   -2.5399 H         1 UNK         0.0788 
     98 H98        22.7456   28.0439   -2.3014 H         1 UNK         0.0788 
     99 H99        26.1770   27.2428   -2.8148 H         1 UNK         0.2993 
    100 H100       28.0410   25.6729   -3.2191 H         1 UNK         0.0949 
    101 H101       29.0315   26.9770   -0.6090 H         1 UNK         0.0767 
    102 H102       29.8733   26.9940   -2.1524 H         1 UNK         0.0767 
    103 H103       28.3699   27.8755   -1.9656 H         1 UNK         0.0767 
    104 H104       28.2416   23.9645   -0.9653 H         1 UNK         0.3013 
    105 H105       30.1759   26.0907    2.8064 H         1 UNK         0.3121 
    106 H106       30.4216   28.3434    1.0487 H         1 UNK         0.0774 
    107 H107       32.8203   28.1206    1.5698 H         1 UNK         0.0815 
    108 H108       32.4603   27.0636    2.9269 H         1 UNK         0.0815 
    109 H109       32.1332   26.5358    1.2758 H         1 UNK         0.0815 
    110 H110       28.6370   29.2532    2.8179 H         1 UNK         0.2987 
    111 H111       29.5917   30.8079    5.0108 H         1 UNK         0.0949 
    112 H112       27.1297   31.1808    3.2202 H         1 UNK         0.0806 
    113 H113       27.1978   30.2287    4.7020 H         1 UNK         0.0806 
    114 H114       27.3905   31.9743    4.7685 H         1 UNK         0.0806 
    115 H115       30.8690   32.5124    4.9762 H         1 UNK         0.3010 
    116 H116       31.9616   34.3488    4.5470 H         1 UNK         0.0829 
    117 H117       29.8752   35.4732    3.7541 H         1 UNK         0.0813 
    118 H118       31.2940   36.0373    2.8860 H         1 UNK         0.0813 
    119 H119       30.1905   34.9159    2.1107 H         1 UNK         0.0813 
    120 H120       31.5190   32.1279    1.8722 H         1 UNK         0.3038 
    121 H121       33.8389   32.8287    0.3583 H         1 UNK         0.0769 
    122 H122       33.4613   30.5967   -0.7254 H         1 UNK         0.0811 
    123 H123       31.9837   31.5406   -0.6280 H         1 UNK         0.0811 
    124 H124       32.2541   30.2089    0.4918 H         1 UNK         0.0811 
    125 H125       33.3425   30.4538    3.0024 H         1 UNK         0.3204 
    126 H126       36.2628   30.4616    3.5002 H         1 UNK         0.0748 
    127 H127       36.3905   28.0006    3.5855 H         1 UNK         0.0771 
    128 H128       34.6997   27.8494    3.1423 H         1 UNK         0.0771 
    129 H129       35.8645   28.4914    1.9834 H         1 UNK         0.0771 
    130 H130       32.9475   29.9431    4.6967 H         1 UNK         0.2980 
    131 H131       33.9204   30.2530    7.4369 H         1 UNK         0.0545 
    132 H132       30.3199   31.0089    8.1978 H         1 UNK         0.3459 
    133 H133       31.2751   29.6120    8.6184 H         1 UNK         0.3459 
    134 H134       32.6704   28.2412    8.2544 H         1 UNK         0.0616 
    135 H135       34.0223   27.8594    7.2464 H         1 UNK         0.0616 
    136 H136       33.9190   26.3105    5.2365 H         1 UNK         0.0634 
    137 H137       33.3999   25.4813    6.6902 H         1 UNK         0.0634 
@<TRIPOS>BOND
     1    1    2 1    
     2    1   72 1    
     3    1   73 1    
     4    1   74 1    
     5    2    3 2    
     6    2    4 am   BACKBONE|DICT|INTERRES
     7    4    5 1    
     8    4   75 1    
     9    5    6 1    
    10    5   35 1    
    11    5   76 1    
    12    6    7 1    
    13    6   77 1    
    14    6   78 1    
    15    7    8 1    
    16    8    9 1    
    17    8   79 1    
    18    8   80 1    
    19    9   10 ar   
    20    9   14 ar   
    21   10   11 ar   
    22   10   81 1    
    23   11   12 ar   
    24   11   71 1    
    25   12   13 ar   
    26   12   82 1    
    27   13   14 ar   
    28   13   15 1    
    29   14   83 1    
    30   15   16 1    
    31   15   84 1    
    32   15   85 1    
    33   16   17 1    
    34   17   18 1    
    35   17   86 1    
    36   17   87 1    
    37   18   19 1    
    38   18   37 1    
    39   18   88 1    
    40   19   20 am   BACKBONE|DICT|INTERRES
    41   19   89 1    
    42   20   21 2    
    43   20   22 1    
    44   22   23 1    
    45   22   24 1    
    46   22   90 1    
    47   23   91 1    
    48   23   92 1    
    49   23   93 1    
    50   24   25 am   BACKBONE|DICT|INTERRES
    51   24   94 1    
    52   25   26 2    
    53   25   27 1    
    54   27   28 1    
    55   27   29 1    
    56   27   95 1    
    57   28   96 1    
    58   28   97 1    
    59   28   98 1    
    60   29   30 am   BACKBONE|DICT|INTERRES
    61   29   99 1    
    62   30   31 2    
    63   30   32 1    
    64   32   33 1    
    65   32   34 1    
    66   32  100 1    
    67   33  101 1    
    68   33  102 1    
    69   33  103 1    
    70   34   35 am   BACKBONE|DICT|INTERRES
    71   34  104 1    
    72   35   36 2    
    73   37   38 2    
    74   37   39 am   BACKBONE|DICT|INTERRES
    75   39   40 1    
    76   39  105 1    
    77   40   41 1    
    78   40   42 1    
    79   40  106 1    
    80   41  107 1    
    81   41  108 1    
    82   41  109 1    
    83   42   43 2    
    84   42   44 am   BACKBONE|DICT|INTERRES
    85   44   45 1    
    86   44  110 1    
    87   45   46 1    
    88   45   47 1    
    89   45  111 1    
    90   46  112 1    
    91   46  113 1    
    92   46  114 1    
    93   47   48 2    
    94   47   49 am   BACKBONE|DICT|INTERRES
    95   49   50 1    
    96   49  115 1    
    97   50   51 1    
    98   50   52 1    
    99   50  116 1    
   100   51  117 1    
   101   51  118 1    
   102   51  119 1    
   103   52   53 2    
   104   52   54 am   BACKBONE|DICT|INTERRES
   105   54   55 1    
   106   54  120 1    
   107   55   56 1    
   108   55   57 1    
   109   55  121 1    
   110   56  122 1    
   111   56  123 1    
   112   56  124 1    
   113   57   58 2    
   114   57   59 am   BACKBONE|DICT|INTERRES
   115   59   60 1    
   116   59  125 1    
   117   60   61 1    
   118   60   62 1    
   119   60  126 1    
   120   61  127 1    
   121   61  128 1    
   122   61  129 1    
   123   62   63 2    
   124   62   64 am   BACKBONE|DICT|INTERRES
   125   64   65 1    
   126   64  130 1    
   127   65   66 1    
   128   65   69 1    
   129   65  131 1    
   130   66   67 am   BACKBONE|DICT|INTERRES
   131   66   68 2    
   132   67  132 1    
   133   67  133 1    
   134   69   70 1    
   135   69  134 1    
   136   69  135 1    
   137   70   71 1    
   138   71  136 1    
   139   71  137 1    
@<TRIPOS>SUBSTRUCTURE
     1 UNK         1 GROUP             0       ****    0 ROOT    
