@<TRIPOS>MOLECULE
3R136
137   139    1
SMALL
USER_CHARGES


@<TRIPOS>ATOM
      1 CA         28.7809   21.0389    3.7903 C.3       0 UNK        -0.1979 
      2 C          28.1851   21.2869    2.4130 C.2       0 UNK         0.4864 
      3 O          26.9832   21.0908    2.2270 O.2       0 UNK        -0.5359 
      4 N          29.0160   21.6951    1.4426 N.am      1 UNK        -0.4318 
      5 CA         28.6049   21.9885    0.0703 C.3       1 UNK         0.0824 
      6 C6         29.8034   21.9883   -0.9197 C.3       12 UNK        -0.0944 
      7 S7         30.9484   23.4125   -0.8247 S.3       12 UNK        -0.2672 
      8 C8         32.3517   22.7882    0.1526 C.3       12 UNK         0.0333 
      9 C9         32.5398   23.6270    1.4079 C.ar      12 UNK        -0.0807 
     10 C10        33.3176   24.7883    1.3773 C.ar      12 UNK        -0.0894 
     11 C11        33.4778   25.5678    2.5286 C.ar      12 UNK        -0.0804 
     12 C12        32.8304   25.1928    3.7107 C.ar      12 UNK        -0.0824 
     13 C13        32.0537   24.0313    3.7521 C.ar      12 UNK        -0.0762 
     14 C14        31.9340   23.2437    2.6051 C.ar      12 UNK        -0.0782 
     15 C15        31.3589   23.5992    5.0357 C.3       12 UNK         0.0230 
     16 S16        29.9039   24.6129    5.4695 S.3       12 UNK        -0.2608 
     17 C17        29.0186   24.9206    3.8937 C.3       12 UNK        -0.0989 
     18 CA         29.0667   26.4256    3.5196 C.3       5 UNK         0.0716 
     19 N          29.0016   26.6577    2.0703 N.am      5 UNK        -0.4135 
     20 C          29.3331   27.8303    1.5085 C.2       4 UNK         0.5031 
     21 O          29.6768   28.8215    2.1564 O.2       4 UNK        -0.5229 
     22 CA         29.2309   27.9566   -0.0200 C.3       4 UNK         0.0329 
     23 CB         30.4470   27.3043   -0.6918 C.3       4 UNK        -0.2001 
     24 N          27.9995   27.4539   -0.6413 N.am      4 UNK        -0.4303 
     25 C          26.7384   27.6824   -0.2441 C.2       3 UNK         0.5044 
     26 O          26.4364   28.1808    0.8378 O.2       3 UNK        -0.5152 
     27 CA         25.6084   27.3241   -1.2276 C.3       3 UNK         0.0319 
     28 CB         25.0432   28.6079   -1.8557 C.3       3 UNK        -0.2001 
     29 N          26.0467   26.4283   -2.3033 N.am      3 UNK        -0.4354 
     30 C          26.1988   25.0981   -2.2420 C.2       2 UNK         0.4964 
     31 O          26.6539   24.4620   -3.1931 O.2       2 UNK        -0.5047 
     32 CA         25.7490   24.3286   -0.9847 C.3       2 UNK         0.0288 
     33 CB         24.3179   23.7964   -1.1674 C.3       2 UNK        -0.2113 
     34 N          26.6495   23.2048   -0.7514 N.am      2 UNK        -0.4145 
     35 C          27.7465   23.2709    0.0112 C.2       1 UNK         0.5006 
     36 O          28.0803   24.2750    0.6518 O.2       1 UNK        -0.5103 
     37 C          28.0314   27.2564    4.3193 C.2       5 UNK         0.5055 
     38 O          28.2678   27.5422    5.4933 O.2       5 UNK        -0.5220 
     39 N          26.9179   27.6478    3.6845 N.am      6 UNK        -0.4450 
     40 CA         25.9051   28.5218    4.2773 C.3       6 UNK         0.0367 
     41 CB         24.5119   28.1021    3.7788 C.3       6 UNK        -0.1929 
     42 C          26.1776   29.9962    3.9429 C.2       6 UNK         0.5070 
     43 O          26.0609   30.8496    4.8224 O.2       6 UNK        -0.5237 
     44 N          26.5056   30.2708    2.6738 N.am      7 UNK        -0.4739 
     45 CA         26.6640   31.6155    2.1218 C.3       7 UNK         0.0276 
     46 CB         26.5982   31.5436    0.5873 C.3       7 UNK        -0.1927 
     47 C          27.9503   32.3238    2.5693 C.2       7 UNK         0.5013 
     48 O          27.8997   33.5219    2.8519 O.2       7 UNK        -0.5193 
     49 N          29.0715   31.5919    2.5991 N.am      8 UNK        -0.4253 
     50 CA         30.3969   32.1295    2.9126 C.3       8 UNK         0.0242 
     51 CB         31.3405   31.8888    1.7234 C.3       8 UNK        -0.2000 
     52 C          30.9734   31.5136    4.1920 C.2       8 UNK         0.4948 
     53 O          31.5992   32.2378    4.9675 O.2       8 UNK        -0.5275 
     54 N          30.7778   30.2005    4.3867 N.am      9 UNK        -0.4246 
     55 CA         31.2066   29.3667    5.5216 C.3       9 UNK         0.0261 
     56 CB         30.5623   29.8301    6.8428 C.3       9 UNK        -0.1959 
     57 C          32.7311   29.2115    5.6616 C.2       9 UNK         0.5033 
     58 O          33.2204   28.0837    5.7082 O.2       9 UNK        -0.5390 
     59 N          33.4553   30.3341    5.7189 N.am      10 UNK        -0.4215 
     60 CA         34.9182   30.3881    5.6994 C.3       10 UNK         0.0240 
     61 CB         35.3844   31.7134    6.3234 C.3       10 UNK        -0.1982 
     62 C          35.4834   30.2336    4.2769 C.2       10 UNK         0.4970 
     63 O          36.5976   29.7323    4.1262 O.2       10 UNK        -0.4916 
     64 N          34.7089   30.6729    3.2736 N.am      11 UNK        -0.4279 
     65 CA         35.0261   30.6331    1.8341 C.3       11 UNK         0.1003 
     66 C          36.2180   31.5419    1.4002 C.2       11 UNK         0.5709 
     67 N          36.6339   32.5144    2.2033 N.am      11 UNK        -0.7358 
     68 O          36.7548   31.3915    0.3049 O.2       11 UNK        -0.4999 
     69 C69        35.1331   29.1884    1.2700 C.3       12 UNK        -0.0954 
     70 S70        33.6480   28.1737    1.5915 S.3       12 UNK        -0.2268 
     71 C71        34.3906   26.7839    2.4978 C.3       12 UNK         0.0203 
     72 H72        28.6260   21.9067    4.4303 H         1 UNK         0.0888 
     73 H73        28.2980   20.1824    4.2602 H         1 UNK         0.0888 
     74 H74        29.8475   20.8260    3.7368 H         1 UNK         0.0888 
     75 H75        29.9850   21.8760    1.6443 H         1 UNK         0.3017 
     76 H76        27.9628   21.1579   -0.2330 H         1 UNK         0.0873 
     77 H77        30.3673   21.0595   -0.8223 H         1 UNK         0.0745 
     78 H78        29.4148   21.9717   -1.9396 H         1 UNK         0.0745 
     79 H79        32.2087   21.7391    0.4142 H         1 UNK         0.0705 
     80 H80        33.2536   22.8272   -0.4600 H         1 UNK         0.0705 
     81 H81        33.8037   25.0854    0.4579 H         1 UNK         0.1334 
     82 H82        32.9411   25.7928    4.6031 H         1 UNK         0.1417 
     83 H83        31.3652   22.3296    2.6478 H         1 UNK         0.1562 
     84 H84        32.0716   23.6480    5.8602 H         1 UNK         0.0748 
     85 H85        31.0521   22.5551    4.9749 H         1 UNK         0.0748 
     86 H86        27.9898   24.5658    3.9804 H         1 UNK         0.0940 
     87 H87        29.4619   24.3174    3.1029 H         1 UNK         0.0940 
     88 H88        30.0511   26.7941    3.8156 H         1 UNK         0.0703 
     89 H89        28.7063   25.8789    1.4842 H         1 UNK         0.3081 
     90 H90        29.2664   29.0243   -0.2454 H         1 UNK         0.0719 
     91 H91        30.4595   26.2274   -0.5293 H         1 UNK         0.0809 
     92 H92        30.4588   27.4846   -1.7666 H         1 UNK         0.0809 
     93 H93        31.3780   27.7034   -0.2886 H         1 UNK         0.0809 
     94 H94        28.1193   27.0019   -1.5356 H         1 UNK         0.2990 
     95 H95        24.7966   26.8629   -0.6633 H         1 UNK         0.0690 
     96 H96        24.2200   28.3883   -2.5360 H         1 UNK         0.0788 
     97 H97        25.8030   29.1575   -2.4132 H         1 UNK         0.0788 
     98 H98        24.6535   29.2782   -1.0884 H         1 UNK         0.0788 
     99 H99        26.3037   26.8850   -3.1668 H         1 UNK         0.2993 
    100 H100       25.7661   24.9652   -0.1004 H         1 UNK         0.0949 
    101 H101       23.9886   23.2373   -0.2912 H         1 UNK         0.0767 
    102 H102       23.6123   24.6156   -1.3123 H         1 UNK         0.0767 
    103 H103       24.2366   23.1393   -2.0345 H         1 UNK         0.0767 
    104 H104       26.4665   22.3671   -1.2849 H         1 UNK         0.3013 
    105 H105       26.8190   27.4491    2.6947 H         1 UNK         0.3121 
    106 H106       25.9116   28.4181    5.3647 H         1 UNK         0.0774 
    107 H107       24.4238   28.1818    2.6946 H         1 UNK         0.0815 
    108 H108       23.7367   28.7332    4.2154 H         1 UNK         0.0815 
    109 H109       24.2864   27.0728    4.0575 H         1 UNK         0.0815 
    110 H110       26.5454   29.5002    2.0081 H         1 UNK         0.2987 
    111 H111       25.8221   32.2204    2.4663 H         1 UNK         0.0949 
    112 H112       27.3912   30.9173    0.1768 H         1 UNK         0.0806 
    113 H113       25.6440   31.1376    0.2522 H         1 UNK         0.0806 
    114 H114       26.7013   32.5349    0.1437 H         1 UNK         0.0806 
    115 H115       29.0241   30.6015    2.3757 H         1 UNK         0.3010 
    116 H116       30.3416   33.2080    3.0752 H         1 UNK         0.0829 
    117 H117       31.5263   30.8269    1.5541 H         1 UNK         0.0813 
    118 H118       30.9306   32.3059    0.8034 H         1 UNK         0.0813 
    119 H119       32.3012   32.3744    1.8940 H         1 UNK         0.0813 
    120 H120       30.3254   29.6854    3.6330 H         1 UNK         0.3038 
    121 H121       30.8221   28.3692    5.3129 H         1 UNK         0.0769 
    122 H122       30.8173   29.1502    7.6567 H         1 UNK         0.0811 
    123 H123       30.8908   30.8269    7.1373 H         1 UNK         0.0811 
    124 H124       29.4751   29.8448    6.7640 H         1 UNK         0.0811 
    125 H125       32.9437   31.2133    5.6523 H         1 UNK         0.3204 
    126 H126       35.3107   29.5680    6.3047 H         1 UNK         0.0748 
    127 H127       36.4734   31.7804    6.3306 H         1 UNK         0.0771 
    128 H128       35.0062   32.5764    5.7738 H         1 UNK         0.0771 
    129 H129       35.0490   31.8024    7.3569 H         1 UNK         0.0771 
    130 H130       33.8173   31.0781    3.5102 H         1 UNK         0.2980 
    131 H131       34.1675   31.0874    1.3422 H         1 UNK         0.0545 
    132 H132       37.3968   33.1032    1.9085 H         1 UNK         0.3459 
    133 H133       36.2000   32.6609    3.0997 H         1 UNK         0.3459 
    134 H134       35.2663   29.2126    0.1872 H         1 UNK         0.0616 
    135 H135       36.0210   28.6954    1.6680 H         1 UNK         0.0616 
    136 H136       34.6420   27.1116    3.5077 H         1 UNK         0.0634 
    137 H137       35.3301   26.4978    2.0230 H         1 UNK         0.0634 
@<TRIPOS>BOND
     1    1    2 1    
     2    1   72 1    
     3    1   73 1    
     4    1   74 1    
     5    2    3 2    
     6    2    4 am   BACKBONE|DICT|INTERRES
     7    4    5 1    
     8    4   75 1    
     9    5    6 1    
    10    5   35 1    
    11    5   76 1    
    12    6    7 1    
    13    6   77 1    
    14    6   78 1    
    15    7    8 1    
    16    8    9 1    
    17    8   79 1    
    18    8   80 1    
    19    9   10 ar   
    20    9   14 ar   
    21   10   11 ar   
    22   10   81 1    
    23   11   12 ar   
    24   11   71 1    
    25   12   13 ar   
    26   12   82 1    
    27   13   14 ar   
    28   13   15 1    
    29   14   83 1    
    30   15   16 1    
    31   15   84 1    
    32   15   85 1    
    33   16   17 1    
    34   17   18 1    
    35   17   86 1    
    36   17   87 1    
    37   18   19 1    
    38   18   37 1    
    39   18   88 1    
    40   19   20 am   BACKBONE|DICT|INTERRES
    41   19   89 1    
    42   20   21 2    
    43   20   22 1    
    44   22   23 1    
    45   22   24 1    
    46   22   90 1    
    47   23   91 1    
    48   23   92 1    
    49   23   93 1    
    50   24   25 am   BACKBONE|DICT|INTERRES
    51   24   94 1    
    52   25   26 2    
    53   25   27 1    
    54   27   28 1    
    55   27   29 1    
    56   27   95 1    
    57   28   96 1    
    58   28   97 1    
    59   28   98 1    
    60   29   30 am   BACKBONE|DICT|INTERRES
    61   29   99 1    
    62   30   31 2    
    63   30   32 1    
    64   32   33 1    
    65   32   34 1    
    66   32  100 1    
    67   33  101 1    
    68   33  102 1    
    69   33  103 1    
    70   34   35 am   BACKBONE|DICT|INTERRES
    71   34  104 1    
    72   35   36 2    
    73   37   38 2    
    74   37   39 am   BACKBONE|DICT|INTERRES
    75   39   40 1    
    76   39  105 1    
    77   40   41 1    
    78   40   42 1    
    79   40  106 1    
    80   41  107 1    
    81   41  108 1    
    82   41  109 1    
    83   42   43 2    
    84   42   44 am   BACKBONE|DICT|INTERRES
    85   44   45 1    
    86   44  110 1    
    87   45   46 1    
    88   45   47 1    
    89   45  111 1    
    90   46  112 1    
    91   46  113 1    
    92   46  114 1    
    93   47   48 2    
    94   47   49 am   BACKBONE|DICT|INTERRES
    95   49   50 1    
    96   49  115 1    
    97   50   51 1    
    98   50   52 1    
    99   50  116 1    
   100   51  117 1    
   101   51  118 1    
   102   51  119 1    
   103   52   53 2    
   104   52   54 am   BACKBONE|DICT|INTERRES
   105   54   55 1    
   106   54  120 1    
   107   55   56 1    
   108   55   57 1    
   109   55  121 1    
   110   56  122 1    
   111   56  123 1    
   112   56  124 1    
   113   57   58 2    
   114   57   59 am   BACKBONE|DICT|INTERRES
   115   59   60 1    
   116   59  125 1    
   117   60   61 1    
   118   60   62 1    
   119   60  126 1    
   120   61  127 1    
   121   61  128 1    
   122   61  129 1    
   123   62   63 2    
   124   62   64 am   BACKBONE|DICT|INTERRES
   125   64   65 1    
   126   64  130 1    
   127   65   66 1    
   128   65   69 1    
   129   65  131 1    
   130   66   67 am   BACKBONE|DICT|INTERRES
   131   66   68 2    
   132   67  132 1    
   133   67  133 1    
   134   69   70 1    
   135   69  134 1    
   136   69  135 1    
   137   70   71 1    
   138   71  136 1    
   139   71  137 1    
@<TRIPOS>SUBSTRUCTURE
     1 UNK         1 GROUP             0       ****    0 ROOT    
