@<TRIPOS>MOLECULE
3R136
137   139    1
SMALL
USER_CHARGES


@<TRIPOS>ATOM
      1 CA         25.3163   21.4743    2.3561 C.3       0 UNK        -0.1979 
      2 C          26.1055   22.6318    1.7653 C.2       0 UNK         0.4864 
      3 O          25.9906   22.9012    0.5684 O.2       0 UNK        -0.5359 
      4 N          26.8940   23.3316    2.5951 N.am      1 UNK        -0.4318 
      5 CA         27.7657   24.4474    2.2007 C.3       1 UNK         0.0824 
      6 C6         28.5894   25.0041    3.3891 C.3       12 UNK        -0.0944 
      7 S7         29.6892   23.7721    4.1680 S.3       12 UNK        -0.2672 
      8 C8         30.9259   23.4285    2.8700 C.3       12 UNK         0.0333 
      9 C9         31.7776   24.6401    2.5121 C.ar      12 UNK        -0.0807 
     10 C10        33.0125   24.8498    3.1329 C.ar      12 UNK        -0.0894 
     11 C11        33.8184   25.9330    2.7649 C.ar      12 UNK        -0.0804 
     12 C12        33.3800   26.8135    1.7695 C.ar      12 UNK        -0.0824 
     13 C13        32.1443   26.6180    1.1449 C.ar      12 UNK        -0.0762 
     14 C14        31.3523   25.5296    1.5224 C.ar      12 UNK        -0.0782 
     15 C15        31.6544   27.5719    0.0627 C.3       12 UNK         0.0230 
     16 S16        31.2627   26.6667   -1.4677 S.3       12 UNK        -0.2608 
     17 C17        30.4300   27.9188   -2.5078 C.3       12 UNK        -0.0989 
     18 CA         28.8665   27.9000   -2.4942 C.3       5 UNK         0.0716 
     19 N          28.2557   26.5932   -2.2307 N.am      5 UNK        -0.4135 
     20 C          28.2732   25.5792   -3.1066 C.2       4 UNK         0.5031 
     21 O          28.7342   25.6642   -4.2467 O.2       4 UNK        -0.5229 
     22 CA         27.6925   24.2332   -2.6408 C.3       4 UNK         0.0329 
     23 CB         28.6809   23.5108   -1.7106 C.3       4 UNK        -0.2001 
     24 N          26.3909   24.3550   -1.9836 N.am      4 UNK        -0.4303 
     25 C          25.2617   24.7523   -2.5890 C.2       3 UNK         0.5044 
     26 O          25.1883   25.0595   -3.7793 O.2       3 UNK        -0.5152 
     27 CA         23.9959   24.8160   -1.7203 C.3       3 UNK         0.0319 
     28 CB         23.3133   23.4404   -1.6461 C.3       3 UNK        -0.2001 
     29 N          24.2983   25.2891   -0.3698 N.am      3 UNK        -0.4354 
     30 C          24.4432   26.5815   -0.0447 C.2       2 UNK         0.4964 
     31 O          24.2475   27.5124   -0.8260 O.2       2 UNK        -0.5047 
     32 CA         24.8938   26.8961    1.3918 C.3       2 UNK         0.0288 
     33 CB         23.6761   27.0582    2.3150 C.3       2 UNK        -0.2113 
     34 N          25.7992   25.8961    1.9627 N.am      2 UNK        -0.4145 
     35 C          27.0146   25.5873    1.4851 C.2       1 UNK         0.5006 
     36 O          27.5248   26.1187    0.4963 O.2       1 UNK        -0.5103 
     37 C          28.2676   29.0112   -1.6184 C.2       5 UNK         0.5055 
     38 O          27.7962   30.0088   -2.1677 O.2       5 UNK        -0.5220 
     39 N          28.3065   28.8550   -0.2910 N.am      6 UNK        -0.4450 
     40 CA         27.9039   29.8699    0.6816 C.3       6 UNK         0.0367 
     41 CB         28.9026   31.0449    0.6931 C.3       6 UNK        -0.1929 
     42 C          27.8381   29.2286    2.0683 C.2       6 UNK         0.5070 
     43 O          28.6284   28.3312    2.3601 O.2       6 UNK        -0.5237 
     44 N          26.9058   29.7089    2.9012 N.am      7 UNK        -0.4739 
     45 CA         26.6453   29.1937    4.2516 C.3       7 UNK         0.0276 
     46 CB         25.3202   29.7836    4.7621 C.3       7 UNK        -0.1927 
     47 C          27.7750   29.4678    5.2628 C.2       7 UNK         0.5013 
     48 O          27.8521   28.7771    6.2796 O.2       7 UNK        -0.5193 
     49 N          28.6193   30.4616    4.9713 N.am      8 UNK        -0.4253 
     50 CA         29.8280   30.8063    5.7083 C.3       8 UNK         0.0242 
     51 CB         29.5374   31.9737    6.6669 C.3       8 UNK        -0.2000 
     52 C          30.9010   31.1819    4.6822 C.2       8 UNK         0.4948 
     53 O          30.5638   31.6664    3.5982 O.2       8 UNK        -0.5275 
     54 N          32.1667   30.9624    5.0426 N.am      9 UNK        -0.4246 
     55 CA         33.3431   31.1987    4.2125 C.3       9 UNK         0.0261 
     56 CB         33.4807   30.0705    3.1694 C.3       9 UNK        -0.1959 
     57 C          34.5729   31.2810    5.1260 C.2       9 UNK         0.5033 
     58 O          34.4558   31.0555    6.3351 O.2       9 UNK        -0.5390 
     59 N          35.7373   31.5740    4.5299 N.am      10 UNK        -0.4215 
     60 CA         37.0364   31.7276    5.2014 C.3       10 UNK         0.0240 
     61 CB         38.0929   32.1351    4.1608 C.3       10 UNK        -0.1982 
     62 C          37.5177   30.4991    6.0005 C.2       10 UNK         0.4970 
     63 O          38.3584   30.6569    6.8868 O.2       10 UNK        -0.4916 
     64 N          36.9749   29.3143    5.6934 N.am      11 UNK        -0.4279 
     65 CA         37.1413   28.0830    6.4775 C.3       11 UNK         0.1003 
     66 C          36.4697   28.1040    7.8849 C.2       11 UNK         0.5709 
     67 N          35.5717   29.0358    8.1873 N.am      11 UNK        -0.7358 
     68 O          36.7840   27.2626    8.7237 O.2       11 UNK        -0.4999 
     69 C69        36.7321   26.8302    5.6586 C.3       12 UNK        -0.0954 
     70 S70        34.9971   26.8601    5.0847 S.3       12 UNK        -0.2268 
     71 C71        35.1723   26.1322    3.4291 C.3       12 UNK         0.0203 
     72 H72        25.5904   20.5442    1.8591 H         1 UNK         0.0888 
     73 H73        24.2487   21.6364    2.2110 H         1 UNK         0.0888 
     74 H74        25.5013   21.3568    3.4236 H         1 UNK         0.0888 
     75 H75        26.9589   23.0556    3.5650 H         1 UNK         0.3017 
     76 H76        28.4574   24.0418    1.4639 H         1 UNK         0.0873 
     77 H77        29.1934   25.8604    3.0886 H         1 UNK         0.0745 
     78 H78        27.9201   25.3853    4.1627 H         1 UNK         0.0745 
     79 H79        31.5711   22.6221    3.2219 H         1 UNK         0.0705 
     80 H80        30.4336   23.0371    1.9795 H         1 UNK         0.0705 
     81 H81        33.3532   24.1651    3.8978 H         1 UNK         0.1334 
     82 H82        34.0028   27.6483    1.4791 H         1 UNK         0.1417 
     83 H83        30.4033   25.3739    1.0292 H         1 UNK         0.1562 
     84 H84        32.4010   28.3371   -0.1552 H         1 UNK         0.0748 
     85 H85        30.7712   28.0906    0.4321 H         1 UNK         0.0748 
     86 H86        30.7611   27.7203   -3.5284 H         1 UNK         0.0940 
     87 H87        30.8295   28.9090   -2.2779 H         1 UNK         0.0940 
     88 H88        28.5528   28.1714   -3.5054 H         1 UNK         0.0703 
     89 H89        27.8666   26.4435   -1.3018 H         1 UNK         0.3081 
     90 H90        27.5511   23.6095   -3.5261 H         1 UNK         0.0719 
     91 H91        28.9117   24.1051   -0.8274 H         1 UNK         0.0809 
     92 H92        28.2886   22.5495   -1.3779 H         1 UNK         0.0809 
     93 H93        29.6245   23.3189   -2.2230 H         1 UNK         0.0809 
     94 H94        26.3373   24.0573   -1.0141 H         1 UNK         0.2990 
     95 H95        23.2981   25.5105   -2.1935 H         1 UNK         0.0690 
     96 H96        22.3919   23.4864   -1.0654 H         1 UNK         0.0788 
     97 H97        23.9590   22.6882   -1.1914 H         1 UNK         0.0788 
     98 H98        23.0505   23.0833   -2.6428 H         1 UNK         0.0788 
     99 H99        24.5320   24.5812    0.3145 H         1 UNK         0.2993 
    100 H100       25.4261   27.8464    1.3564 H         1 UNK         0.0949 
    101 H101       23.0168   27.8495    1.9549 H         1 UNK         0.0767 
    102 H102       23.0864   26.1422    2.3703 H         1 UNK         0.0767 
    103 H103       23.9762   27.3232    3.3285 H         1 UNK         0.0767 
    104 H104       25.4614   25.3847    2.7650 H         1 UNK         0.3013 
    105 H105       28.6155   27.9795    0.1210 H         1 UNK         0.3121 
    106 H106       26.9100   30.2341    0.4126 H         1 UNK         0.0774 
    107 H107       29.9140   30.7079    0.9255 H         1 UNK         0.0815 
    108 H108       28.6287   31.7854    1.4456 H         1 UNK         0.0815 
    109 H109       28.9340   31.5628   -0.2650 H         1 UNK         0.0815 
    110 H110       26.3145   30.4662    2.5881 H         1 UNK         0.2987 
    111 H111       26.5352   28.1092    4.1788 H         1 UNK         0.0949 
    112 H112       25.3801   30.8664    4.8790 H         1 UNK         0.0806 
    113 H113       24.4952   29.5659    4.0842 H         1 UNK         0.0806 
    114 H114       25.0572   29.3659    5.7350 H         1 UNK         0.0806 
    115 H115       28.5300   30.9305    4.0789 H         1 UNK         0.3010 
    116 H116       30.1770   29.9409    6.2765 H         1 UNK         0.0829 
    117 H117       28.7672   31.7079    7.3911 H         1 UNK         0.0813 
    118 H118       30.4302   32.2503    7.2291 H         1 UNK         0.0813 
    119 H119       29.2000   32.8611    6.1297 H         1 UNK         0.0813 
    120 H120       32.3885   30.6422    5.9784 H         1 UNK         0.3038 
    121 H121       33.2356   32.1599    3.7054 H         1 UNK         0.0769 
    122 H122       33.5759   29.0969    3.6501 H         1 UNK         0.0811 
    123 H123       34.3536   30.2109    2.5316 H         1 UNK         0.0811 
    124 H124       32.6121   30.0278    2.5117 H         1 UNK         0.0811 
    125 H125       35.7336   31.7392    3.5333 H         1 UNK         0.3204 
    126 H126       36.9313   32.5451    5.9177 H         1 UNK         0.0748 
    127 H127       39.0657   32.2906    4.6298 H         1 UNK         0.0771 
    128 H128       38.2200   31.3697    3.3940 H         1 UNK         0.0771 
    129 H129       37.8245   33.0683    3.6648 H         1 UNK         0.0771 
    130 H130       36.2810   29.2753    4.9630 H         1 UNK         0.2980 
    131 H131       38.2105   27.9870    6.6756 H         1 UNK         0.0545 
    132 H132       35.1545   29.0359    9.1038 H         1 UNK         0.3459 
    133 H133       35.2830   29.7277    7.5023 H         1 UNK         0.3459 
    134 H134       37.3906   26.7429    4.7931 H         1 UNK         0.0616 
    135 H135       36.8896   25.9191    6.2387 H         1 UNK         0.0616 
    136 H136       35.8091   26.7747    2.8188 H         1 UNK         0.0634 
    137 H137       35.6840   25.1718    3.5091 H         1 UNK         0.0634 
@<TRIPOS>BOND
     1    1    2 1    
     2    1   72 1    
     3    1   73 1    
     4    1   74 1    
     5    2    3 2    
     6    2    4 am   BACKBONE|DICT|INTERRES
     7    4    5 1    
     8    4   75 1    
     9    5    6 1    
    10    5   35 1    
    11    5   76 1    
    12    6    7 1    
    13    6   77 1    
    14    6   78 1    
    15    7    8 1    
    16    8    9 1    
    17    8   79 1    
    18    8   80 1    
    19    9   10 ar   
    20    9   14 ar   
    21   10   11 ar   
    22   10   81 1    
    23   11   12 ar   
    24   11   71 1    
    25   12   13 ar   
    26   12   82 1    
    27   13   14 ar   
    28   13   15 1    
    29   14   83 1    
    30   15   16 1    
    31   15   84 1    
    32   15   85 1    
    33   16   17 1    
    34   17   18 1    
    35   17   86 1    
    36   17   87 1    
    37   18   19 1    
    38   18   37 1    
    39   18   88 1    
    40   19   20 am   BACKBONE|DICT|INTERRES
    41   19   89 1    
    42   20   21 2    
    43   20   22 1    
    44   22   23 1    
    45   22   24 1    
    46   22   90 1    
    47   23   91 1    
    48   23   92 1    
    49   23   93 1    
    50   24   25 am   BACKBONE|DICT|INTERRES
    51   24   94 1    
    52   25   26 2    
    53   25   27 1    
    54   27   28 1    
    55   27   29 1    
    56   27   95 1    
    57   28   96 1    
    58   28   97 1    
    59   28   98 1    
    60   29   30 am   BACKBONE|DICT|INTERRES
    61   29   99 1    
    62   30   31 2    
    63   30   32 1    
    64   32   33 1    
    65   32   34 1    
    66   32  100 1    
    67   33  101 1    
    68   33  102 1    
    69   33  103 1    
    70   34   35 am   BACKBONE|DICT|INTERRES
    71   34  104 1    
    72   35   36 2    
    73   37   38 2    
    74   37   39 am   BACKBONE|DICT|INTERRES
    75   39   40 1    
    76   39  105 1    
    77   40   41 1    
    78   40   42 1    
    79   40  106 1    
    80   41  107 1    
    81   41  108 1    
    82   41  109 1    
    83   42   43 2    
    84   42   44 am   BACKBONE|DICT|INTERRES
    85   44   45 1    
    86   44  110 1    
    87   45   46 1    
    88   45   47 1    
    89   45  111 1    
    90   46  112 1    
    91   46  113 1    
    92   46  114 1    
    93   47   48 2    
    94   47   49 am   BACKBONE|DICT|INTERRES
    95   49   50 1    
    96   49  115 1    
    97   50   51 1    
    98   50   52 1    
    99   50  116 1    
   100   51  117 1    
   101   51  118 1    
   102   51  119 1    
   103   52   53 2    
   104   52   54 am   BACKBONE|DICT|INTERRES
   105   54   55 1    
   106   54  120 1    
   107   55   56 1    
   108   55   57 1    
   109   55  121 1    
   110   56  122 1    
   111   56  123 1    
   112   56  124 1    
   113   57   58 2    
   114   57   59 am   BACKBONE|DICT|INTERRES
   115   59   60 1    
   116   59  125 1    
   117   60   61 1    
   118   60   62 1    
   119   60  126 1    
   120   61  127 1    
   121   61  128 1    
   122   61  129 1    
   123   62   63 2    
   124   62   64 am   BACKBONE|DICT|INTERRES
   125   64   65 1    
   126   64  130 1    
   127   65   66 1    
   128   65   69 1    
   129   65  131 1    
   130   66   67 am   BACKBONE|DICT|INTERRES
   131   66   68 2    
   132   67  132 1    
   133   67  133 1    
   134   69   70 1    
   135   69  134 1    
   136   69  135 1    
   137   70   71 1    
   138   71  136 1    
   139   71  137 1    
@<TRIPOS>SUBSTRUCTURE
     1 UNK         1 GROUP             0       ****    0 ROOT    
