@<TRIPOS>MOLECULE
3R136
137   139    1
SMALL
USER_CHARGES


@<TRIPOS>ATOM
      1 CA         27.4039   17.4972   -1.9352 C.3       0 UNK        -0.1979 
      2 C          27.5396   19.0118   -1.8775 C.2       0 UNK         0.4864 
      3 O          26.8458   19.7161   -2.6132 O.2       0 UNK        -0.5359 
      4 N          28.4327   19.5170   -1.0164 N.am      1 UNK        -0.4318 
      5 CA         28.6449   20.9474   -0.7781 C.3       1 UNK         0.0824 
      6 C6         29.9963   21.1949   -0.0658 C.3       12 UNK        -0.0944 
      7 S7         30.5526   22.9295   -0.1810 S.3       12 UNK        -0.2672 
      8 C8         32.0391   22.8788    0.8734 C.3       12 UNK         0.0333 
      9 C9         31.8218   23.4976    2.2513 C.ar      12 UNK        -0.0807 
     10 C10        32.6964   24.4880    2.7098 C.ar      12 UNK        -0.0894 
     11 C11        32.5470   25.0360    3.9868 C.ar      12 UNK        -0.0804 
     12 C12        31.5075   24.5949    4.8090 C.ar      12 UNK        -0.0824 
     13 C13        30.6084   23.6264    4.3552 C.ar      12 UNK        -0.0762 
     14 C14        30.7794   23.0713    3.0824 C.ar      12 UNK        -0.0782 
     15 C15        29.4449   23.1865    5.2353 C.3       12 UNK         0.0230 
     16 S16        28.2865   24.5500    5.5990 S.3       12 UNK        -0.2608 
     17 C17        27.8667   25.1538    3.9298 C.3       12 UNK        -0.0989 
     18 CA         28.4811   26.5555    3.6486 C.3       5 UNK         0.0716 
     19 N          29.0095   26.6539    2.2859 N.am      5 UNK        -0.4135 
     20 C          29.7224   27.6784    1.7960 C.2       4 UNK         0.5031 
     21 O          30.0481   28.6726    2.4432 O.2       4 UNK        -0.5229 
     22 CA         30.0843   27.6035    0.3037 C.3       4 UNK         0.0329 
     23 CB         31.3694   26.7890    0.0980 C.3       4 UNK        -0.2001 
     24 N          28.9993   27.0446   -0.5105 N.am      4 UNK        -0.4303 
     25 C          27.8172   27.6519   -0.6925 C.2       3 UNK         0.5044 
     26 O          27.5337   28.7528   -0.2220 O.2       3 UNK        -0.5152 
     27 CA         26.7524   26.8815   -1.4907 C.3       3 UNK         0.0319 
     28 CB         27.0452   26.9528   -2.9980 C.3       3 UNK        -0.2001 
     29 N          26.5890   25.4803   -1.0834 N.am      3 UNK        -0.4354 
     30 C          26.2826   25.0693    0.1581 C.2       2 UNK         0.4964 
     31 O          26.1875   25.8213    1.1265 O.2       2 UNK        -0.5047 
     32 CA         26.0656   23.5677    0.3625 C.3       2 UNK         0.0288 
     33 CB         24.6668   23.1408   -0.1209 C.3       2 UNK        -0.2113 
     34 N          27.1110   22.7957   -0.3077 N.am      2 UNK        -0.4145 
     35 C          27.4656   21.5474    0.0163 C.2       1 UNK         0.5006 
     36 O          26.9313   20.8883    0.9131 O.2       1 UNK        -0.5103 
     37 C          27.4727   27.6837    3.9505 C.2       5 UNK         0.5055 
     38 O          27.5539   28.3148    5.0051 O.2       5 UNK        -0.5220 
     39 N          26.5521   27.9187    3.0041 N.am      6 UNK        -0.4450 
     40 CA         25.5491   28.9818    3.0472 C.3       6 UNK         0.0367 
     41 CB         24.5136   28.7505    1.9349 C.3       6 UNK        -0.1929 
     42 C          26.1619   30.3878    2.9377 C.2       6 UNK         0.5070 
     43 O          25.7130   31.2923    3.6427 O.2       6 UNK        -0.5237 
     44 N          27.1659   30.5507    2.0634 N.am      7 UNK        -0.4739 
     45 CA         27.9073   31.8008    1.8771 C.3       7 UNK         0.0276 
     46 CB         28.7869   31.7035    0.6200 C.3       7 UNK        -0.1927 
     47 C          28.7525   32.1784    3.1046 C.2       7 UNK         0.5013 
     48 O          28.7093   33.3350    3.5282 O.2       7 UNK        -0.5193 
     49 N          29.4815   31.1938    3.6524 N.am      8 UNK        -0.4253 
     50 CA         30.3776   31.2933    4.8078 C.3       8 UNK         0.0242 
     51 CB         29.5645   31.5028    6.1056 C.3       8 UNK        -0.2000 
     52 C          31.5017   32.3263    4.5826 C.2       8 UNK         0.4948 
     53 O          32.0421   32.3918    3.4746 O.2       8 UNK        -0.5275 
     54 N          31.8558   33.0906    5.6282 N.am      9 UNK        -0.4246 
     55 CA         32.9393   34.0806    5.6770 C.3       9 UNK         0.0261 
     56 CB         32.6201   35.2975    4.7773 C.3       9 UNK        -0.1959 
     57 C          34.2980   33.4176    5.3863 C.2       9 UNK         0.5033 
     58 O          34.8124   32.7105    6.2544 O.2       9 UNK        -0.5390 
     59 N          34.8331   33.6186    4.1742 N.am      10 UNK        -0.4215 
     60 CA         36.0213   32.9290    3.6628 C.3       10 UNK         0.0240 
     61 CB         36.4946   33.6210    2.3740 C.3       10 UNK        -0.1982 
     62 C          35.7895   31.4253    3.4147 C.2       10 UNK         0.4970 
     63 O          36.7482   30.6558    3.4870 O.2       10 UNK        -0.4916 
     64 N          34.5342   31.0384    3.1424 N.am      11 UNK        -0.4279 
     65 CA         34.0685   29.6557    2.9602 C.3       11 UNK         0.1003 
     66 C          34.6730   28.9174    1.7252 C.2       11 UNK         0.5709 
     67 N          35.1101   29.6312    0.6940 N.am      11 UNK        -0.7358 
     68 O          34.7345   27.6918    1.6803 O.2       11 UNK        -0.4999 
     69 C69        34.1315   28.8523    4.2934 C.3       12 UNK        -0.0954 
     70 S70        32.7037   27.7372    4.4872 S.3       12 UNK        -0.2268 
     71 C71        33.5071   26.1076    4.4748 C.3       12 UNK         0.0203 
     72 H72        28.0837   17.0001   -1.2434 H         1 UNK         0.0888 
     73 H73        26.3863   17.2022   -1.6810 H         1 UNK         0.0888 
     74 H74        27.6221   17.1388   -2.9409 H         1 UNK         0.0888 
     75 H75        28.9489   18.8905   -0.4156 H         1 UNK         0.3017 
     76 H76        28.6826   21.4304   -1.7576 H         1 UNK         0.0873 
     77 H77        29.9541   20.8785    0.9776 H         1 UNK         0.0745 
     78 H78        30.7723   20.5847   -0.5315 H         1 UNK         0.0745 
     79 H79        32.3850   21.8513    0.9932 H         1 UNK         0.0705 
     80 H80        32.8361   23.4039    0.3446 H         1 UNK         0.0705 
     81 H81        33.5020   24.8323    2.0750 H         1 UNK         0.1334 
     82 H82        31.3810   25.0268    5.7926 H         1 UNK         0.1417 
     83 H83        30.0930   22.3127    2.7359 H         1 UNK         0.1562 
     84 H84        29.8355   22.7936    6.1750 H         1 UNK         0.0748 
     85 H85        28.8905   22.3705    4.7688 H         1 UNK         0.0748 
     86 H86        26.7799   25.1497    3.8208 H         1 UNK         0.0940 
     87 H87        28.2150   24.4224    3.1997 H         1 UNK         0.0940 
     88 H88        29.3413   26.7085    4.3047 H         1 UNK         0.0703 
     89 H89        28.7617   25.9077    1.6555 H         1 UNK         0.3081 
     90 H90        30.2728   28.6221   -0.0419 H         1 UNK         0.0719 
     91 H91        31.2399   25.7510    0.3998 H         1 UNK         0.0809 
     92 H92        31.6888   26.8009   -0.9440 H         1 UNK         0.0809 
     93 H93        32.1871   27.1971    0.6935 H         1 UNK         0.0809 
     94 H94        29.1560   26.1433   -0.9373 H         1 UNK         0.2990 
     95 H95        25.7967   27.3790   -1.3115 H         1 UNK         0.0690 
     96 H96        26.2308   26.5225   -3.5813 H         1 UNK         0.0788 
     97 H97        27.9623   26.4239   -3.2603 H         1 UNK         0.0788 
     98 H98        27.1611   27.9875   -3.3243 H         1 UNK         0.0788 
     99 H99        26.5915   24.8016   -1.8303 H         1 UNK         0.2993 
    100 H100       26.1320   23.3811    1.4372 H         1 UNK         0.0949 
    101 H101       24.4614   22.0993    0.1275 H         1 UNK         0.0767 
    102 H102       23.8895   23.7431    0.3516 H         1 UNK         0.0767 
    103 H103       24.5590   23.2531   -1.2003 H         1 UNK         0.0767 
    104 H104       27.6567   23.2824   -1.0042 H         1 UNK         0.3013 
    105 H105       26.5233   27.2984    2.1972 H         1 UNK         0.3121 
    106 H106       25.0365   28.9170    4.0093 H         1 UNK         0.0774 
    107 H107       24.9711   28.7791    0.9452 H         1 UNK         0.0815 
    108 H108       23.7371   29.5162    1.9589 H         1 UNK         0.0815 
    109 H109       24.0213   27.7842    2.0464 H         1 UNK         0.0815 
    110 H110       27.4254   29.7713    1.4651 H         1 UNK         0.2987 
    111 H111       27.1793   32.5996    1.7192 H         1 UNK         0.0949 
    112 H112       29.5197   30.9003    0.7012 H         1 UNK         0.0806 
    113 H113       28.1863   31.5192   -0.2709 H         1 UNK         0.0806 
    114 H114       29.3367   32.6312    0.4558 H         1 UNK         0.0806 
    115 H115       29.4960   30.2905    3.1815 H         1 UNK         0.3010 
    116 H116       30.8725   30.3236    4.8800 H         1 UNK         0.0829 
    117 H117       29.0970   32.4877    6.1411 H         1 UNK         0.0813 
    118 H118       28.7702   30.7601    6.1885 H         1 UNK         0.0813 
    119 H119       30.1897   31.3932    6.9923 H         1 UNK         0.0813 
    120 H120       31.3681   32.9410    6.5003 H         1 UNK         0.3038 
    121 H121       32.9888   34.4399    6.7061 H         1 UNK         0.0769 
    122 H122       33.4190   36.0391    4.8209 H         1 UNK         0.0811 
    123 H123       32.4762   35.0240    3.7318 H         1 UNK         0.0811 
    124 H124       31.7079   35.7936    5.1089 H         1 UNK         0.0811 
    125 H125       34.3222   34.1961    3.5219 H         1 UNK         0.3204 
    126 H126       36.8123   33.0194    4.4104 H         1 UNK         0.0748 
    127 H127       37.3936   33.1427    1.9821 H         1 UNK         0.0771 
    128 H128       35.7364   33.5816    1.5908 H         1 UNK         0.0771 
    129 H129       36.7395   34.6682    2.5529 H         1 UNK         0.0771 
    130 H130       33.7946   31.7359    3.1241 H         1 UNK         0.2980 
    131 H131       33.0158   29.7782    2.7014 H         1 UNK         0.0545 
    132 H132       35.4971   29.1548   -0.1049 H         1 UNK         0.3459 
    133 H133       35.0629   30.6370    0.7107 H         1 UNK         0.3459 
    134 H134       35.0746   28.3122    4.3909 H         1 UNK         0.0616 
    135 H135       34.0958   29.5318    5.1467 H         1 UNK         0.0616 
    136 H136       33.8540   25.8692    5.4811 H         1 UNK         0.0634 
    137 H137       34.3935   26.1320    3.8399 H         1 UNK         0.0634 
@<TRIPOS>BOND
     1    1    2 1    
     2    1   72 1    
     3    1   73 1    
     4    1   74 1    
     5    2    3 2    
     6    2    4 am   BACKBONE|DICT|INTERRES
     7    4    5 1    
     8    4   75 1    
     9    5    6 1    
    10    5   35 1    
    11    5   76 1    
    12    6    7 1    
    13    6   77 1    
    14    6   78 1    
    15    7    8 1    
    16    8    9 1    
    17    8   79 1    
    18    8   80 1    
    19    9   10 ar   
    20    9   14 ar   
    21   10   11 ar   
    22   10   81 1    
    23   11   12 ar   
    24   11   71 1    
    25   12   13 ar   
    26   12   82 1    
    27   13   14 ar   
    28   13   15 1    
    29   14   83 1    
    30   15   16 1    
    31   15   84 1    
    32   15   85 1    
    33   16   17 1    
    34   17   18 1    
    35   17   86 1    
    36   17   87 1    
    37   18   19 1    
    38   18   37 1    
    39   18   88 1    
    40   19   20 am   BACKBONE|DICT|INTERRES
    41   19   89 1    
    42   20   21 2    
    43   20   22 1    
    44   22   23 1    
    45   22   24 1    
    46   22   90 1    
    47   23   91 1    
    48   23   92 1    
    49   23   93 1    
    50   24   25 am   BACKBONE|DICT|INTERRES
    51   24   94 1    
    52   25   26 2    
    53   25   27 1    
    54   27   28 1    
    55   27   29 1    
    56   27   95 1    
    57   28   96 1    
    58   28   97 1    
    59   28   98 1    
    60   29   30 am   BACKBONE|DICT|INTERRES
    61   29   99 1    
    62   30   31 2    
    63   30   32 1    
    64   32   33 1    
    65   32   34 1    
    66   32  100 1    
    67   33  101 1    
    68   33  102 1    
    69   33  103 1    
    70   34   35 am   BACKBONE|DICT|INTERRES
    71   34  104 1    
    72   35   36 2    
    73   37   38 2    
    74   37   39 am   BACKBONE|DICT|INTERRES
    75   39   40 1    
    76   39  105 1    
    77   40   41 1    
    78   40   42 1    
    79   40  106 1    
    80   41  107 1    
    81   41  108 1    
    82   41  109 1    
    83   42   43 2    
    84   42   44 am   BACKBONE|DICT|INTERRES
    85   44   45 1    
    86   44  110 1    
    87   45   46 1    
    88   45   47 1    
    89   45  111 1    
    90   46  112 1    
    91   46  113 1    
    92   46  114 1    
    93   47   48 2    
    94   47   49 am   BACKBONE|DICT|INTERRES
    95   49   50 1    
    96   49  115 1    
    97   50   51 1    
    98   50   52 1    
    99   50  116 1    
   100   51  117 1    
   101   51  118 1    
   102   51  119 1    
   103   52   53 2    
   104   52   54 am   BACKBONE|DICT|INTERRES
   105   54   55 1    
   106   54  120 1    
   107   55   56 1    
   108   55   57 1    
   109   55  121 1    
   110   56  122 1    
   111   56  123 1    
   112   56  124 1    
   113   57   58 2    
   114   57   59 am   BACKBONE|DICT|INTERRES
   115   59   60 1    
   116   59  125 1    
   117   60   61 1    
   118   60   62 1    
   119   60  126 1    
   120   61  127 1    
   121   61  128 1    
   122   61  129 1    
   123   62   63 2    
   124   62   64 am   BACKBONE|DICT|INTERRES
   125   64   65 1    
   126   64  130 1    
   127   65   66 1    
   128   65   69 1    
   129   65  131 1    
   130   66   67 am   BACKBONE|DICT|INTERRES
   131   66   68 2    
   132   67  132 1    
   133   67  133 1    
   134   69   70 1    
   135   69  134 1    
   136   69  135 1    
   137   70   71 1    
   138   71  136 1    
   139   71  137 1    
@<TRIPOS>SUBSTRUCTURE
     1 UNK         1 GROUP             0       ****    0 ROOT    
