@<TRIPOS>MOLECULE
3R136
137   139    1
SMALL
USER_CHARGES


@<TRIPOS>ATOM
      1 CA         28.4010   22.6355   -1.8897 C.3       0 UNK        -0.1979 
      2 C          28.5791   23.2607   -0.5148 C.2       0 UNK         0.4864 
      3 O          27.9467   24.2743   -0.2095 O.2       0 UNK        -0.5359 
      4 N          29.4350   22.6509    0.3160 N.am      1 UNK        -0.4318 
      5 CA         29.8394   23.1260    1.6468 C.3       1 UNK         0.0824 
      6 C6         30.9264   22.2220    2.2891 C.3       12 UNK        -0.0944 
      7 S7         32.2478   21.7066    1.1365 S.3       12 UNK        -0.2672 
      8 C8         33.5476   22.9426    1.4519 C.3       12 UNK         0.0333 
      9 C9         33.1646   24.3429    0.9872 C.ar      12 UNK        -0.0807 
     10 C10        33.2855   25.4252    1.8639 C.ar      12 UNK        -0.0894 
     11 C11        32.9694   26.7205    1.4436 C.ar      12 UNK        -0.0804 
     12 C12        32.5371   26.9296    0.1311 C.ar      12 UNK        -0.0824 
     13 C13        32.4116   25.8573   -0.7580 C.ar      12 UNK        -0.0762 
     14 C14        32.7299   24.5670   -0.3246 C.ar      12 UNK        -0.0782 
     15 C15        31.9600   26.0963   -2.1936 C.3       12 UNK         0.0230 
     16 S16        30.1556   25.9356   -2.3849 S.3       12 UNK        -0.2608 
     17 C17        29.5756   27.3295   -1.3658 C.3       12 UNK        -0.0989 
     18 CA         28.1509   27.8160   -1.7347 C.3       5 UNK         0.0716 
     19 N          27.1445   26.7843   -1.4556 N.am      5 UNK        -0.4135 
     20 C          25.9166   26.7224   -1.9877 C.2       4 UNK         0.5031 
     21 O          25.5192   27.4676   -2.8836 O.2       4 UNK        -0.5229 
     22 CA         24.9393   25.7161   -1.3529 C.3       4 UNK         0.0329 
     23 CB         24.9704   24.3641   -2.0789 C.3       4 UNK        -0.2001 
     24 N          25.1892   25.5291    0.0829 N.am      4 UNK        -0.4303 
     25 C          24.9107   26.4550    1.0122 C.2       3 UNK         0.5044 
     26 O          24.3911   27.5359    0.7305 O.2       3 UNK        -0.5152 
     27 CA         25.3007   26.1912    2.4815 C.3       3 UNK         0.0319 
     28 CB         24.1094   26.4293    3.4330 C.3       3 UNK        -0.2001 
     29 N          25.9463   24.9034    2.7667 N.am      3 UNK        -0.4354 
     30 C          25.4267   23.6708    2.6961 C.2       2 UNK         0.4964 
     31 O          24.2986   23.4254    2.2670 O.2       2 UNK        -0.5047 
     32 CA         26.3387   22.5236    3.1807 C.3       2 UNK         0.0288 
     33 CB         25.6609   21.1436    3.0813 C.3       2 UNK        -0.2113 
     34 N          27.6037   22.4788    2.4446 N.am      2 UNK        -0.4145 
     35 C          28.6531   23.2964    2.6207 C.2       1 UNK         0.5006 
     36 O          28.6930   24.1722    3.4867 O.2       1 UNK        -0.5103 
     37 C          27.8554   29.1654   -1.0283 C.2       5 UNK         0.5055 
     38 O          28.6989   30.0604   -1.1029 O.2       5 UNK        -0.5220 
     39 N          26.7092   29.2983   -0.3396 N.am      6 UNK        -0.4450 
     40 CA         26.3449   30.3835    0.5768 C.3       6 UNK         0.0367 
     41 CB         26.3014   31.7623   -0.1238 C.3       6 UNK        -0.1929 
     42 C          27.2290   30.3146    1.8339 C.2       6 UNK         0.5070 
     43 O          27.1791   29.2993    2.5291 O.2       6 UNK        -0.5237 
     44 N          28.0137   31.3589    2.1150 N.am      7 UNK        -0.4739 
     45 CA         28.9467   31.4057    3.2366 C.3       7 UNK         0.0276 
     46 CB         28.2493   32.0068    4.4701 C.3       7 UNK        -0.1927 
     47 C          30.1827   32.2224    2.8491 C.2       7 UNK         0.5013 
     48 O          30.1018   33.0999    1.9855 O.2       7 UNK        -0.5193 
     49 N          31.2890   31.9293    3.5322 N.am      8 UNK        -0.4253 
     50 CA         32.5862   32.5918    3.4661 C.3       8 UNK         0.0242 
     51 CB         33.3570   32.1335    2.2139 C.3       8 UNK        -0.2000 
     52 C          33.3322   32.2223    4.7553 C.2       8 UNK         0.4948 
     53 O          32.8473   31.3773    5.5128 O.2       8 UNK        -0.5275 
     54 N          34.5103   32.8160    4.9843 N.am      9 UNK        -0.4246 
     55 CA         35.3237   32.6335    6.1986 C.3       9 UNK         0.0261 
     56 CB         36.5999   33.4833    6.0810 C.3       9 UNK        -0.1959 
     57 C          35.6847   31.1737    6.5525 C.2       9 UNK         0.5033 
     58 O          35.9270   30.8829    7.7248 O.2       9 UNK        -0.5390 
     59 N          35.7048   30.2892    5.5474 N.am      10 UNK        -0.4215 
     60 CA         35.9776   28.8591    5.6885 C.3       10 UNK         0.0240 
     61 CB         36.7031   28.3753    4.4195 C.3       10 UNK        -0.1982 
     62 C          34.7292   27.9960    5.9716 C.2       10 UNK         0.4970 
     63 O          34.9040   26.7994    6.2084 O.2       10 UNK        -0.4916 
     64 N          33.5125   28.5617    5.9277 N.am      11 UNK        -0.4279 
     65 CA         32.2537   27.8012    6.0732 C.3       11 UNK         0.1003 
     66 C          31.0881   28.5439    6.7847 C.2       11 UNK         0.5709 
     67 N          31.1553   29.8457    7.0239 N.am      11 UNK        -0.7358 
     68 O          30.1067   27.9111    7.1675 O.2       11 UNK        -0.4999 
     69 C69        31.8103   27.1133    4.7500 C.3       12 UNK        -0.0954 
     70 S70        31.6277   28.2600    3.3378 S.3       12 UNK        -0.2268 
     71 C71        33.1378   27.9048    2.3845 C.3       12 UNK         0.0203 
     72 H72        29.2415   21.9927   -2.1504 H         1 UNK         0.0888 
     73 H73        27.4909   22.0374   -1.9181 H         1 UNK         0.0888 
     74 H74        28.3279   23.4124   -2.6502 H         1 UNK         0.0888 
     75 H75        29.9323   21.8312   -0.0033 H         1 UNK         0.3017 
     76 H76        30.2689   24.1196    1.5000 H         1 UNK         0.0873 
     77 H77        31.3742   22.7232    3.1496 H         1 UNK         0.0745 
     78 H78        30.4781   21.3050    2.6771 H         1 UNK         0.0745 
     79 H79        34.4525   22.6383    0.9246 H         1 UNK         0.0705 
     80 H80        33.7944   22.9334    2.5147 H         1 UNK         0.0705 
     81 H81        33.6445   25.2601    2.8699 H         1 UNK         0.1334 
     82 H82        32.3058   27.9327   -0.1993 H         1 UNK         0.1417 
     83 H83        32.6416   23.7348   -1.0098 H         1 UNK         0.1562 
     84 H84        32.4468   25.3804   -2.8576 H         1 UNK         0.0748 
     85 H85        32.2769   27.0838   -2.5330 H         1 UNK         0.0748 
     86 H86        30.2980   28.1377   -1.4918 H         1 UNK         0.0940 
     87 H87        29.6214   27.0373   -0.3144 H         1 UNK         0.0940 
     88 H88        28.1331   28.0242   -2.8065 H         1 UNK         0.0703 
     89 H89        27.4145   26.0592   -0.7950 H         1 UNK         0.3081 
     90 H90        23.9329   26.1251   -1.4670 H         1 UNK         0.0719 
     91 H91        25.9513   23.8995   -2.0219 H         1 UNK         0.0809 
     92 H92        24.2437   23.6698   -1.6568 H         1 UNK         0.0809 
     93 H93        24.7293   24.4851   -3.1358 H         1 UNK         0.0809 
     94 H94        25.6744   24.6873    0.3636 H         1 UNK         0.2990 
     95 H95        26.0558   26.9404    2.7184 H         1 UNK         0.0690 
     96 H96        24.4023   26.3032    4.4753 H         1 UNK         0.0788 
     97 H97        23.2844   25.7461    3.2295 H         1 UNK         0.0788 
     98 H98        23.7220   27.4438    3.3294 H         1 UNK         0.0788 
     99 H99        26.9084   24.9648    3.0890 H         1 UNK         0.2993 
    100 H100       26.5553   22.7121    4.2346 H         1 UNK         0.0949 
    101 H101       25.4149   20.8869    2.0499 H         1 UNK         0.0767 
    102 H102       26.3023   20.3570    3.4794 H         1 UNK         0.0767 
    103 H103       24.7326   21.1216    3.6539 H         1 UNK         0.0767 
    104 H104       27.6541   21.8174    1.6835 H         1 UNK         0.3013 
    105 H105       26.0764   28.5085   -0.3131 H         1 UNK         0.3121 
    106 H106       25.3304   30.1643    0.9135 H         1 UNK         0.0774 
    107 H107       25.9167   32.5277    0.5513 H         1 UNK         0.0815 
    108 H108       27.2803   32.0949   -0.4689 H         1 UNK         0.0815 
    109 H109       25.6388   31.7385   -0.9888 H         1 UNK         0.0815 
    110 H110       28.0757   32.1365    1.4699 H         1 UNK         0.2987 
    111 H111       29.2809   30.3923    3.4739 H         1 UNK         0.0949 
    112 H112       27.8977   33.0213    4.2786 H         1 UNK         0.0806 
    113 H113       27.3913   31.4057    4.7717 H         1 UNK         0.0806 
    114 H114       28.9278   32.0500    5.3232 H         1 UNK         0.0806 
    115 H115       31.2519   31.2276    4.2631 H         1 UNK         0.3010 
    116 H116       32.4373   33.6733    3.4443 H         1 UNK         0.0829 
    117 H117       32.7946   32.3377    1.3026 H         1 UNK         0.0813 
    118 H118       34.3113   32.6530    2.1225 H         1 UNK         0.0813 
    119 H119       33.5672   31.0650    2.2423 H         1 UNK         0.0813 
    120 H120       34.8524   33.4878    4.3117 H         1 UNK         0.3038 
    121 H121       34.7359   33.0199    7.0339 H         1 UNK         0.0769 
    122 H122       37.2139   33.1737    5.2343 H         1 UNK         0.0811 
    123 H123       37.2141   33.3936    6.9784 H         1 UNK         0.0811 
    124 H124       36.3649   34.5407    5.9587 H         1 UNK         0.0811 
    125 H125       35.4892   30.6234    4.6199 H         1 UNK         0.3204 
    126 H126       36.6554   28.7084    6.5316 H         1 UNK         0.0748 
    127 H127       36.9178   27.3067    4.4674 H         1 UNK         0.0771 
    128 H128       36.1137   28.5507    3.5197 H         1 UNK         0.0771 
    129 H129       37.6579   28.8866    4.2948 H         1 UNK         0.0771 
    130 H130       33.4161   29.5568    5.7534 H         1 UNK         0.2980 
    131 H131       32.4626   26.9918    6.7755 H         1 UNK         0.0545 
    132 H132       31.9056   30.4172    6.6441 H         1 UNK         0.3459 
    133 H133       30.3947   30.2868    7.5142 H         1 UNK         0.3459 
    134 H134       30.8642   26.5853    4.8831 H         1 UNK         0.0616 
    135 H135       32.5306   26.3377    4.4959 H         1 UNK         0.0616 
    136 H136       33.9702   27.7293    3.0647 H         1 UNK         0.0634 
    137 H137       33.4016   28.7907    1.8070 H         1 UNK         0.0634 
@<TRIPOS>BOND
     1    1    2 1    
     2    1   72 1    
     3    1   73 1    
     4    1   74 1    
     5    2    3 2    
     6    2    4 am   BACKBONE|DICT|INTERRES
     7    4    5 1    
     8    4   75 1    
     9    5    6 1    
    10    5   35 1    
    11    5   76 1    
    12    6    7 1    
    13    6   77 1    
    14    6   78 1    
    15    7    8 1    
    16    8    9 1    
    17    8   79 1    
    18    8   80 1    
    19    9   10 ar   
    20    9   14 ar   
    21   10   11 ar   
    22   10   81 1    
    23   11   12 ar   
    24   11   71 1    
    25   12   13 ar   
    26   12   82 1    
    27   13   14 ar   
    28   13   15 1    
    29   14   83 1    
    30   15   16 1    
    31   15   84 1    
    32   15   85 1    
    33   16   17 1    
    34   17   18 1    
    35   17   86 1    
    36   17   87 1    
    37   18   19 1    
    38   18   37 1    
    39   18   88 1    
    40   19   20 am   BACKBONE|DICT|INTERRES
    41   19   89 1    
    42   20   21 2    
    43   20   22 1    
    44   22   23 1    
    45   22   24 1    
    46   22   90 1    
    47   23   91 1    
    48   23   92 1    
    49   23   93 1    
    50   24   25 am   BACKBONE|DICT|INTERRES
    51   24   94 1    
    52   25   26 2    
    53   25   27 1    
    54   27   28 1    
    55   27   29 1    
    56   27   95 1    
    57   28   96 1    
    58   28   97 1    
    59   28   98 1    
    60   29   30 am   BACKBONE|DICT|INTERRES
    61   29   99 1    
    62   30   31 2    
    63   30   32 1    
    64   32   33 1    
    65   32   34 1    
    66   32  100 1    
    67   33  101 1    
    68   33  102 1    
    69   33  103 1    
    70   34   35 am   BACKBONE|DICT|INTERRES
    71   34  104 1    
    72   35   36 2    
    73   37   38 2    
    74   37   39 am   BACKBONE|DICT|INTERRES
    75   39   40 1    
    76   39  105 1    
    77   40   41 1    
    78   40   42 1    
    79   40  106 1    
    80   41  107 1    
    81   41  108 1    
    82   41  109 1    
    83   42   43 2    
    84   42   44 am   BACKBONE|DICT|INTERRES
    85   44   45 1    
    86   44  110 1    
    87   45   46 1    
    88   45   47 1    
    89   45  111 1    
    90   46  112 1    
    91   46  113 1    
    92   46  114 1    
    93   47   48 2    
    94   47   49 am   BACKBONE|DICT|INTERRES
    95   49   50 1    
    96   49  115 1    
    97   50   51 1    
    98   50   52 1    
    99   50  116 1    
   100   51  117 1    
   101   51  118 1    
   102   51  119 1    
   103   52   53 2    
   104   52   54 am   BACKBONE|DICT|INTERRES
   105   54   55 1    
   106   54  120 1    
   107   55   56 1    
   108   55   57 1    
   109   55  121 1    
   110   56  122 1    
   111   56  123 1    
   112   56  124 1    
   113   57   58 2    
   114   57   59 am   BACKBONE|DICT|INTERRES
   115   59   60 1    
   116   59  125 1    
   117   60   61 1    
   118   60   62 1    
   119   60  126 1    
   120   61  127 1    
   121   61  128 1    
   122   61  129 1    
   123   62   63 2    
   124   62   64 am   BACKBONE|DICT|INTERRES
   125   64   65 1    
   126   64  130 1    
   127   65   66 1    
   128   65   69 1    
   129   65  131 1    
   130   66   67 am   BACKBONE|DICT|INTERRES
   131   66   68 2    
   132   67  132 1    
   133   67  133 1    
   134   69   70 1    
   135   69  134 1    
   136   69  135 1    
   137   70   71 1    
   138   71  136 1    
   139   71  137 1    
@<TRIPOS>SUBSTRUCTURE
     1 UNK         1 GROUP             0       ****    0 ROOT    
