@<TRIPOS>MOLECULE
3R136
137   139    1
SMALL
USER_CHARGES


@<TRIPOS>ATOM
      1 CA         34.8617   21.4045   -0.6260 C.3       0 UNK        -0.1979 
      2 C          33.8926   22.3538    0.0632 C.2       0 UNK         0.4864 
      3 O          34.3187   23.1900    0.8614 O.2       0 UNK        -0.5359 
      4 N          32.5930   22.2241   -0.2304 N.am      1 UNK        -0.4318 
      5 CA         31.5306   23.0803    0.3042 C.3       1 UNK         0.0824 
      6 C6         30.1232   22.4551    0.1125 C.3       12 UNK        -0.0944 
      7 S7         29.9177   20.7550    0.7481 S.3       12 UNK        -0.2672 
      8 C8         30.5139   20.8606    2.4689 C.3       12 UNK         0.0333 
      9 C9         29.8543   21.9718    3.2786 C.ar      12 UNK        -0.0807 
     10 C10        30.6510   22.9061    3.9471 C.ar      12 UNK        -0.0894 
     11 C11        30.0660   23.9177    4.7105 C.ar      12 UNK        -0.0804 
     12 C12        28.6754   23.9864    4.8176 C.ar      12 UNK        -0.0824 
     13 C13        27.8639   23.0661    4.1487 C.ar      12 UNK        -0.0762 
     14 C14        28.4605   22.0572    3.3837 C.ar      12 UNK        -0.0782 
     15 C15        26.3475   23.1428    4.2750 C.3       12 UNK         0.0230 
     16 S16        25.6198   24.4101    3.1827 S.3       12 UNK        -0.2608 
     17 C17        25.8367   25.9416    4.1559 C.3       12 UNK        -0.0989 
     18 CA         26.7617   26.9598    3.4441 C.3       5 UNK         0.0716 
     19 N          26.1429   27.4705    2.2138 N.am      5 UNK        -0.4135 
     20 C          26.6010   28.4464    1.4176 C.2       4 UNK         0.5031 
     21 O          27.6125   29.1251    1.6289 O.2       4 UNK        -0.5229 
     22 CA         25.8251   28.6884    0.1219 C.3       4 UNK         0.0329 
     23 CB         25.1235   30.0564    0.1338 C.3       4 UNK        -0.2001 
     24 N          26.8364   28.6500   -0.9211 N.am      4 UNK        -0.4303 
     25 C          26.7617   27.9926   -2.0806 C.2       3 UNK         0.5044 
     26 O          25.7221   27.5258   -2.5474 O.2       3 UNK        -0.5152 
     27 CA         28.0968   27.7851   -2.8241 C.3       3 UNK         0.0319 
     28 CB         28.3307   28.9151   -3.8396 C.3       3 UNK        -0.2001 
     29 N          29.2650   27.6756   -1.9334 N.am      3 UNK        -0.4354 
     30 C          29.4327   26.7181   -1.0074 C.2       2 UNK         0.4964 
     31 O          28.6117   25.8227   -0.7937 O.2       2 UNK        -0.5047 
     32 CA         30.7121   26.7955   -0.1518 C.3       2 UNK         0.0288 
     33 CB         30.5237   27.7737    1.0195 C.3       2 UNK        -0.2113 
     34 N          31.0497   25.4777    0.3886 N.am      2 UNK        -0.4145 
     35 C          31.5598   24.4789   -0.3434 C.2       1 UNK         0.5006 
     36 O          31.9735   24.6178   -1.4988 O.2       1 UNK        -0.5103 
     37 C          27.1610   28.0989    4.4012 C.2       5 UNK         0.5055 
     38 O          26.2846   28.8165    4.8889 O.2       5 UNK        -0.5220 
     39 N          28.4763   28.2648    4.5989 N.am      6 UNK        -0.4450 
     40 CA         29.1812   29.3282    5.3272 C.3       6 UNK         0.0367 
     41 CB         28.7977   29.3524    6.8182 C.3       6 UNK        -0.1929 
     42 C          29.0583   30.7257    4.6938 C.2       6 UNK         0.5070 
     43 O          30.0663   31.4216    4.5751 O.2       6 UNK        -0.5237 
     44 N          27.8431   31.1110    4.2922 N.am      7 UNK        -0.4739 
     45 CA         27.4788   32.4280    3.7711 C.3       7 UNK         0.0276 
     46 CB         25.9721   32.4459    3.4676 C.3       7 UNK        -0.1927 
     47 C          28.2796   32.8870    2.5413 C.2       7 UNK         0.5013 
     48 O          28.5942   34.0751    2.4528 O.2       7 UNK        -0.5193 
     49 N          28.5818   31.9648    1.6154 N.am      8 UNK        -0.4253 
     50 CA         29.2695   32.3023    0.3666 C.3       8 UNK         0.0242 
     51 CB         28.8482   31.3358   -0.7494 C.3       8 UNK        -0.2000 
     52 C          30.8009   32.3427    0.4858 C.2       8 UNK         0.4948 
     53 O          31.4152   33.1648   -0.1963 O.2       8 UNK        -0.5275 
     54 N          31.4021   31.4480    1.2867 N.am      9 UNK        -0.4246 
     55 CA         32.8556   31.2232    1.2664 C.3       9 UNK         0.0261 
     56 CB         33.2328   30.3382    0.0565 C.3       9 UNK        -0.1959 
     57 C          33.4466   30.6835    2.5808 C.2       9 UNK         0.5033 
     58 O          34.5284   30.0935    2.5409 O.2       9 UNK        -0.5390 
     59 N          32.7669   30.8820    3.7203 N.am      10 UNK        -0.4215 
     60 CA         33.1678   30.5163    5.0914 C.3       10 UNK         0.0240 
     61 CB         34.4760   31.2151    5.5136 C.3       10 UNK        -0.1982 
     62 C          33.2267   29.0045    5.3807 C.2       10 UNK         0.4970 
     63 O          32.6892   28.5883    6.4060 O.2       10 UNK        -0.4916 
     64 N          33.8693   28.2346    4.4917 N.am      11 UNK        -0.4279 
     65 CA         34.0366   26.7652    4.4238 C.3       11 UNK         0.1003 
     66 C          34.5102   25.9910    5.6942 C.2       11 UNK         0.5709 
     67 N          34.6126   26.5993    6.8659 N.am      11 UNK        -0.7358 
     68 O          34.8397   24.8109    5.6011 O.2       11 UNK        -0.4999 
     69 C69        32.8761   26.0466    3.6717 C.3       12 UNK        -0.0954 
     70 S70        31.2111   26.3783    4.3368 S.3       12 UNK        -0.2268 
     71 C71        30.9296   24.9466    5.4157 C.3       12 UNK         0.0203 
     72 H72        34.3482   20.7087   -1.2894 H         1 UNK         0.0888 
     73 H73        35.5818   21.9688   -1.2179 H         1 UNK         0.0888 
     74 H74        35.4095   20.8239    0.1157 H         1 UNK         0.0888 
     75 H75        32.2968   21.5309   -0.9022 H         1 UNK         0.3017 
     76 H76        31.7171   23.2128    1.3704 H         1 UNK         0.0873 
     77 H77        29.8610   22.4329   -0.9474 H         1 UNK         0.0745 
     78 H78        29.3643   23.0788    0.5900 H         1 UNK         0.0745 
     79 H79        31.5986   20.9788    2.4543 H         1 UNK         0.0705 
     80 H80        30.3210   19.9074    2.9625 H         1 UNK         0.0705 
     81 H81        31.7287   22.8489    3.8759 H         1 UNK         0.1334 
     82 H82        28.2307   24.7623    5.4228 H         1 UNK         0.1417 
     83 H83        27.8419   21.3343    2.8690 H         1 UNK         0.1562 
     84 H84        26.0638   23.3313    5.3115 H         1 UNK         0.0748 
     85 H85        25.9061   22.1784    4.0190 H         1 UNK         0.0748 
     86 H86        26.2133   25.6923    5.1484 H         1 UNK         0.0940 
     87 H87        24.8517   26.3808    4.3275 H         1 UNK         0.0940 
     88 H88        27.6719   26.4369    3.1418 H         1 UNK         0.0703 
     89 H89        25.3069   26.9814    1.9304 H         1 UNK         0.3081 
     90 H90        25.0893   27.8951   -0.0281 H         1 UNK         0.0719 
     91 H91        25.8203   30.8711    0.3332 H         1 UNK         0.0809 
     92 H92        24.6380   30.2587   -0.8209 H         1 UNK         0.0809 
     93 H93        24.3533   30.0906    0.9052 H         1 UNK         0.0809 
     94 H94        27.7481   28.9493   -0.6047 H         1 UNK         0.2990 
     95 H95        28.0170   26.8450   -3.3740 H         1 UNK         0.0690 
     96 H96        29.2266   28.7365   -4.4346 H         1 UNK         0.0788 
     97 H97        28.4373   29.8843   -3.3520 H         1 UNK         0.0788 
     98 H98        27.4934   28.9924   -4.5348 H         1 UNK         0.0788 
     99 H99        29.9920   28.3652   -2.0595 H         1 UNK         0.2993 
    100 H100       31.5360   27.1432   -0.7792 H         1 UNK         0.0949 
    101 H101       29.7315   27.4462    1.6932 H         1 UNK         0.0767 
    102 H102       31.4368   27.8802    1.6032 H         1 UNK         0.0767 
    103 H103       30.2593   28.7679    0.6659 H         1 UNK         0.0767 
    104 H104       30.6921   25.2715    1.3099 H         1 UNK         0.3013 
    105 H105       29.0986   27.6220    4.1267 H         1 UNK         0.3121 
    106 H106       30.2368   29.0638    5.2730 H         1 UNK         0.0774 
    107 H107       29.4035   30.0794    7.3605 H         1 UNK         0.0815 
    108 H108       27.7528   29.6237    6.9699 H         1 UNK         0.0815 
    109 H109       28.9654   28.3812    7.2837 H         1 UNK         0.0815 
    110 H110       27.0885   30.4418    4.4243 H         1 UNK         0.2987 
    111 H111       27.6747   33.1502    4.5664 H         1 UNK         0.0949 
    112 H112       25.6607   33.4160    3.0774 H         1 UNK         0.0806 
    113 H113       25.7030   31.6924    2.7268 H         1 UNK         0.0806 
    114 H114       25.3846   32.2553    4.3659 H         1 UNK         0.0806 
    115 H115       28.2791   31.0036    1.7519 H         1 UNK         0.3010 
    116 H116       28.9514   33.2991    0.0516 H         1 UNK         0.0829 
    117 H117       27.7781   31.3988   -0.9436 H         1 UNK         0.0813 
    118 H118       29.3565   31.5770   -1.6842 H         1 UNK         0.0813 
    119 H119       29.0931   30.3059   -0.5032 H         1 UNK         0.0813 
    120 H120       30.8364   30.8173    1.8369 H         1 UNK         0.3038 
    121 H121       33.3480   32.1888    1.1320 H         1 UNK         0.0769 
    122 H122       34.3148   30.2385   -0.0395 H         1 UNK         0.0811 
    123 H123       32.8739   30.7618   -0.8814 H         1 UNK         0.0811 
    124 H124       32.8222   29.3336    0.1493 H         1 UNK         0.0811 
    125 H125       31.8626   31.3438    3.6776 H         1 UNK         0.3204 
    126 H126       32.3816   30.9148    5.7342 H         1 UNK         0.0748 
    127 H127       34.6959   31.0234    6.5647 H         1 UNK         0.0771 
    128 H128       35.3342   30.8686    4.9374 H         1 UNK         0.0771 
    129 H129       34.4042   32.2958    5.3906 H         1 UNK         0.0771 
    130 H130       34.2817   28.7421    3.7111 H         1 UNK         0.2980 
    131 H131       34.9012   26.6659    3.7666 H         1 UNK         0.0545 
    132 H132       34.9377   26.0879    7.6703 H         1 UNK         0.3459 
    133 H133       34.2067   27.5213    6.9684 H         1 UNK         0.3459 
    134 H134       33.0425   24.9696    3.6152 H         1 UNK         0.0616 
    135 H135       32.8773   26.3802    2.6342 H         1 UNK         0.0616 
    136 H136       30.4359   25.2888    6.3265 H         1 UNK         0.0634 
    137 H137       31.8766   24.5070    5.7309 H         1 UNK         0.0634 
@<TRIPOS>BOND
     1    1    2 1    
     2    1   72 1    
     3    1   73 1    
     4    1   74 1    
     5    2    3 2    
     6    2    4 am   BACKBONE|DICT|INTERRES
     7    4    5 1    
     8    4   75 1    
     9    5    6 1    
    10    5   35 1    
    11    5   76 1    
    12    6    7 1    
    13    6   77 1    
    14    6   78 1    
    15    7    8 1    
    16    8    9 1    
    17    8   79 1    
    18    8   80 1    
    19    9   10 ar   
    20    9   14 ar   
    21   10   11 ar   
    22   10   81 1    
    23   11   12 ar   
    24   11   71 1    
    25   12   13 ar   
    26   12   82 1    
    27   13   14 ar   
    28   13   15 1    
    29   14   83 1    
    30   15   16 1    
    31   15   84 1    
    32   15   85 1    
    33   16   17 1    
    34   17   18 1    
    35   17   86 1    
    36   17   87 1    
    37   18   19 1    
    38   18   37 1    
    39   18   88 1    
    40   19   20 am   BACKBONE|DICT|INTERRES
    41   19   89 1    
    42   20   21 2    
    43   20   22 1    
    44   22   23 1    
    45   22   24 1    
    46   22   90 1    
    47   23   91 1    
    48   23   92 1    
    49   23   93 1    
    50   24   25 am   BACKBONE|DICT|INTERRES
    51   24   94 1    
    52   25   26 2    
    53   25   27 1    
    54   27   28 1    
    55   27   29 1    
    56   27   95 1    
    57   28   96 1    
    58   28   97 1    
    59   28   98 1    
    60   29   30 am   BACKBONE|DICT|INTERRES
    61   29   99 1    
    62   30   31 2    
    63   30   32 1    
    64   32   33 1    
    65   32   34 1    
    66   32  100 1    
    67   33  101 1    
    68   33  102 1    
    69   33  103 1    
    70   34   35 am   BACKBONE|DICT|INTERRES
    71   34  104 1    
    72   35   36 2    
    73   37   38 2    
    74   37   39 am   BACKBONE|DICT|INTERRES
    75   39   40 1    
    76   39  105 1    
    77   40   41 1    
    78   40   42 1    
    79   40  106 1    
    80   41  107 1    
    81   41  108 1    
    82   41  109 1    
    83   42   43 2    
    84   42   44 am   BACKBONE|DICT|INTERRES
    85   44   45 1    
    86   44  110 1    
    87   45   46 1    
    88   45   47 1    
    89   45  111 1    
    90   46  112 1    
    91   46  113 1    
    92   46  114 1    
    93   47   48 2    
    94   47   49 am   BACKBONE|DICT|INTERRES
    95   49   50 1    
    96   49  115 1    
    97   50   51 1    
    98   50   52 1    
    99   50  116 1    
   100   51  117 1    
   101   51  118 1    
   102   51  119 1    
   103   52   53 2    
   104   52   54 am   BACKBONE|DICT|INTERRES
   105   54   55 1    
   106   54  120 1    
   107   55   56 1    
   108   55   57 1    
   109   55  121 1    
   110   56  122 1    
   111   56  123 1    
   112   56  124 1    
   113   57   58 2    
   114   57   59 am   BACKBONE|DICT|INTERRES
   115   59   60 1    
   116   59  125 1    
   117   60   61 1    
   118   60   62 1    
   119   60  126 1    
   120   61  127 1    
   121   61  128 1    
   122   61  129 1    
   123   62   63 2    
   124   62   64 am   BACKBONE|DICT|INTERRES
   125   64   65 1    
   126   64  130 1    
   127   65   66 1    
   128   65   69 1    
   129   65  131 1    
   130   66   67 am   BACKBONE|DICT|INTERRES
   131   66   68 2    
   132   67  132 1    
   133   67  133 1    
   134   69   70 1    
   135   69  134 1    
   136   69  135 1    
   137   70   71 1    
   138   71  136 1    
   139   71  137 1    
@<TRIPOS>SUBSTRUCTURE
     1 UNK         1 GROUP             0       ****    0 ROOT    
