@<TRIPOS>MOLECULE
3R136
137   139    1
SMALL
USER_CHARGES


@<TRIPOS>ATOM
      1 CA         27.3753   22.5151   -2.3968 C.3       0 UNK        -0.1979 
      2 C          27.3440   23.2036   -1.0420 C.2       0 UNK         0.4864 
      3 O          26.9496   24.3697   -0.9596 O.2       0 UNK        -0.5359 
      4 N          27.7625   22.5035    0.0199 N.am      1 UNK        -0.4318 
      5 CA         27.8185   23.0082    1.3956 C.3       1 UNK         0.0824 
      6 C6         28.4766   22.0001    2.3722 C.3       12 UNK        -0.0944 
      7 S7         30.1122   21.4042    1.8153 S.3       12 UNK        -0.2672 
      8 C8         31.2710   22.0892    3.0564 C.3       12 UNK         0.0333 
      9 C9         32.0835   23.3116    2.6163 C.ar      12 UNK        -0.0807 
     10 C10        32.7950   24.0210    3.5921 C.ar      12 UNK        -0.0894 
     11 C11        33.6155   25.0990    3.2443 C.ar      12 UNK        -0.0804 
     12 C12        33.7166   25.4748    1.9034 C.ar      12 UNK        -0.0824 
     13 C13        32.9958   24.7971    0.9183 C.ar      12 UNK        -0.0762 
     14 C14        32.1853   23.7160    1.2771 C.ar      12 UNK        -0.0782 
     15 C15        33.1343   25.2157   -0.5370 C.3       12 UNK         0.0230 
     16 S16        32.1787   26.7209   -0.8977 S.3       12 UNK        -0.2608 
     17 C17        30.4948   26.0496   -1.0925 C.3       12 UNK        -0.0989 
     18 CA         29.4096   27.0294   -0.5749 C.3       5 UNK         0.0716 
     19 N          28.1688   26.8783   -1.3318 N.am      5 UNK        -0.4135 
     20 C          27.7265   27.6923   -2.2968 C.2       4 UNK         0.5031 
     21 O          28.3396   28.6889   -2.6819 O.2       4 UNK        -0.5229 
     22 CA         26.3795   27.3526   -2.9598 C.3       4 UNK         0.0329 
     23 CB         26.6045   26.7183   -4.3433 C.3       4 UNK        -0.2001 
     24 N          25.5586   26.4493   -2.1486 N.am      4 UNK        -0.4303 
     25 C          24.2483   26.5920   -1.9121 C.2       3 UNK         0.5044 
     26 O          23.5642   27.5170   -2.3517 O.2       3 UNK        -0.5152 
     27 CA         23.5892   25.5281   -1.0226 C.3       3 UNK         0.0319 
     28 CB         23.4223   24.2016   -1.7830 C.3       3 UNK        -0.2001 
     29 N          24.3838   25.3061    0.1871 N.am      3 UNK        -0.4354 
     30 C          23.9704   25.5527    1.4383 C.2       2 UNK         0.4964 
     31 O          22.8321   25.9347    1.7152 O.2       2 UNK        -0.5047 
     32 CA         24.9974   25.3879    2.5774 C.3       2 UNK         0.0288 
     33 CB         24.3874   24.7748    3.8563 C.3       2 UNK        -0.2113 
     34 N          26.2314   24.7034    2.1764 N.am      2 UNK        -0.4145 
     35 C          26.4110   23.4067    1.8904 C.2       1 UNK         0.5006 
     36 O          25.5321   22.5456    1.9700 O.2       1 UNK        -0.5103 
     37 C          29.0990   26.8496    0.9234 C.2       5 UNK         0.5055 
     38 O          27.9372   26.6621    1.2926 O.2       5 UNK        -0.5220 
     39 N          30.1293   26.9272    1.7743 N.am      6 UNK        -0.4450 
     40 CA         30.1163   26.8288    3.2458 C.3       6 UNK         0.0367 
     41 CB         29.4929   25.5073    3.7329 C.3       6 UNK        -0.1929 
     42 C          29.4532   28.0141    3.9701 C.2       6 UNK         0.5070 
     43 O          29.9243   28.4067    5.0365 O.2       6 UNK        -0.5237 
     44 N          28.3816   28.5714    3.3954 N.am      7 UNK        -0.4739 
     45 CA         27.6186   29.7135    3.9028 C.3       7 UNK         0.0276 
     46 CB         26.2135   29.6821    3.2719 C.3       7 UNK        -0.1927 
     47 C          28.3490   31.0518    3.6679 C.2       7 UNK         0.5013 
     48 O          27.8138   31.9424    3.0045 O.2       7 UNK        -0.5193 
     49 N          29.5655   31.1651    4.2073 N.am      8 UNK        -0.4253 
     50 CA         30.4255   32.3410    4.1532 C.3       8 UNK         0.0242 
     51 CB         31.2415   32.3324    2.8474 C.3       8 UNK        -0.2000 
     52 C          31.3513   32.3175    5.3723 C.2       8 UNK         0.4948 
     53 O          31.6966   31.2357    5.8548 O.2       8 UNK        -0.5275 
     54 N          31.7607   33.5045    5.8355 N.am      9 UNK        -0.4246 
     55 CA         32.7557   33.6650    6.8960 C.3       9 UNK         0.0261 
     56 CB         32.7314   35.1138    7.4124 C.3       9 UNK        -0.1959 
     57 C          34.1460   33.2880    6.3616 C.2       9 UNK         0.5033 
     58 O          34.5983   33.9057    5.3946 O.2       9 UNK        -0.5390 
     59 N          34.7728   32.2812    6.9883 N.am      10 UNK        -0.4215 
     60 CA         36.0526   31.6663    6.6122 C.3       10 UNK         0.0240 
     61 CB         37.2226   32.6489    6.8384 C.3       10 UNK        -0.1982 
     62 C          36.0137   31.0901    5.1825 C.2       10 UNK         0.4970 
     63 O          36.7501   31.5508    4.3080 O.2       10 UNK        -0.4916 
     64 N          35.1307   30.1032    4.9748 N.am      11 UNK        -0.4279 
     65 CA         34.9028   29.4195    3.6896 C.3       11 UNK         0.1003 
     66 C          36.1262   28.6747    3.0763 C.2       11 UNK         0.5709 
     67 N          37.1740   28.3733    3.8345 N.am      11 UNK        -0.7358 
     68 O          36.1209   28.3657    1.8875 O.2       11 UNK        -0.4999 
     69 C69        33.6378   28.5159    3.7306 C.3       12 UNK        -0.0954 
     70 S70        33.6304   27.2500    5.0546 S.3       12 UNK        -0.2268 
     71 C71        34.4540   25.8047    4.3026 C.3       12 UNK         0.0203 
     72 H72        27.8182   21.5211   -2.3377 H         1 UNK         0.0888 
     73 H73        26.3650   22.4149   -2.7913 H         1 UNK         0.0888 
     74 H74        27.9599   23.1056   -3.1016 H         1 UNK         0.0888 
     75 H75        28.0682   21.5484   -0.0998 H         1 UNK         0.3017 
     76 H76        28.4454   23.9006    1.3710 H         1 UNK         0.0873 
     77 H77        27.8410   21.1205    2.4933 H         1 UNK         0.0745 
     78 H78        28.5623   22.4416    3.3663 H         1 UNK         0.0745 
     79 H79        30.7360   22.3146    3.9796 H         1 UNK         0.0705 
     80 H80        31.9795   21.2996    3.3098 H         1 UNK         0.0705 
     81 H81        32.7337   23.7138    4.6275 H         1 UNK         0.1334 
     82 H82        34.3696   26.2885    1.6186 H         1 UNK         0.1417 
     83 H83        31.6580   23.1805    0.5012 H         1 UNK         0.1562 
     84 H84        32.8280   24.4128   -1.2096 H         1 UNK         0.0748 
     85 H85        34.1855   25.4086   -0.7566 H         1 UNK         0.0748 
     86 H86        30.4039   25.0682   -0.6232 H         1 UNK         0.0940 
     87 H87        30.3618   25.8717   -2.1613 H         1 UNK         0.0940 
     88 H88        29.7624   28.0568   -0.6889 H         1 UNK         0.0703 
     89 H89        27.6077   26.0797   -1.0501 H         1 UNK         0.3081 
     90 H90        25.8580   28.3023   -3.0964 H         1 UNK         0.0719 
     91 H91        27.1178   25.7589   -4.2667 H         1 UNK         0.0809 
     92 H92        25.6592   26.5523   -4.8603 H         1 UNK         0.0809 
     93 H93        27.2111   27.3655   -4.9782 H         1 UNK         0.0809 
     94 H94        26.0312   25.6345   -1.7626 H         1 UNK         0.2990 
     95 H95        22.5926   25.8926   -0.7651 H         1 UNK         0.0690 
     96 H96        22.8318   24.3434   -2.6892 H         1 UNK         0.0788 
     97 H97        22.9062   23.4609   -1.1720 H         1 UNK         0.0788 
     98 H98        24.3809   23.7773   -2.0809 H         1 UNK         0.0788 
     99 H99        25.3391   24.9957    0.0470 H         1 UNK         0.2993 
    100 H100       25.3080   26.4032    2.8273 H         1 UNK         0.0949 
    101 H101       23.5878   25.4048    4.2478 H         1 UNK         0.0767 
    102 H102       23.9586   23.7896    3.6716 H         1 UNK         0.0767 
    103 H103       25.1342   24.6758    4.6441 H         1 UNK         0.0767 
    104 H104       26.9956   25.3459    1.9637 H         1 UNK         0.3013 
    105 H105       31.0441   27.0781    1.3679 H         1 UNK         0.3121 
    106 H106       31.1653   26.8210    3.5396 H         1 UNK         0.0774 
    107 H107       28.4046   25.5282    3.6925 H         1 UNK         0.0815 
    108 H108       29.7696   25.3135    4.7698 H         1 UNK         0.0815 
    109 H109       29.8353   24.6629    3.1420 H         1 UNK         0.0815 
    110 H110       28.0554   28.1499    2.5317 H         1 UNK         0.2987 
    111 H111       27.5005   29.6009    4.9829 H         1 UNK         0.0949 
    112 H112       26.2570   29.7615    2.1848 H         1 UNK         0.0806 
    113 H113       25.6882   28.7604    3.5206 H         1 UNK         0.0806 
    114 H114       25.6012   30.5080    3.6366 H         1 UNK         0.0806 
    115 H115       29.9367   30.3852    4.7478 H         1 UNK         0.3010 
    116 H116       29.8091   33.2417    4.1977 H         1 UNK         0.0829 
    117 H117       31.9055   33.1962    2.7938 H         1 UNK         0.0813 
    118 H118       31.8615   31.4384    2.7680 H         1 UNK         0.0813 
    119 H119       30.5922   32.3682    1.9724 H         1 UNK         0.0813 
    120 H120       31.4689   34.3458    5.3589 H         1 UNK         0.3038 
    121 H121       32.4912   33.0044    7.7249 H         1 UNK         0.0769 
    122 H122       33.4603   35.2533    8.2119 H         1 UNK         0.0811 
    123 H123       32.9714   35.8298    6.6251 H         1 UNK         0.0811 
    124 H124       31.7533   35.3749    7.8171 H         1 UNK         0.0811 
    125 H125       34.2882   31.8354    7.7558 H         1 UNK         0.3204 
    126 H126       36.2039   30.8204    7.2848 H         1 UNK         0.0748 
    127 H127       38.1796   32.1679    6.6327 H         1 UNK         0.0771 
    128 H128       37.1542   33.5234    6.1904 H         1 UNK         0.0771 
    129 H129       37.2514   32.9994    7.8701 H         1 UNK         0.0771 
    130 H130       34.5527   29.7892    5.7407 H         1 UNK         0.2980 
    131 H131       34.6835   30.2167    2.9766 H         1 UNK         0.0545 
    132 H132       37.9608   27.8980    3.4222 H         1 UNK         0.3459 
    133 H133       37.1877   28.6212    4.8101 H         1 UNK         0.3459 
    134 H134       32.7658   29.1483    3.9061 H         1 UNK         0.0616 
    135 H135       33.4517   28.0530    2.7627 H         1 UNK         0.0616 
    136 H136       35.4165   26.0944    3.8835 H         1 UNK         0.0634 
    137 H137       34.6889   25.1011    5.1025 H         1 UNK         0.0634 
@<TRIPOS>BOND
     1    1    2 1    
     2    1   72 1    
     3    1   73 1    
     4    1   74 1    
     5    2    3 2    
     6    2    4 am   BACKBONE|DICT|INTERRES
     7    4    5 1    
     8    4   75 1    
     9    5    6 1    
    10    5   35 1    
    11    5   76 1    
    12    6    7 1    
    13    6   77 1    
    14    6   78 1    
    15    7    8 1    
    16    8    9 1    
    17    8   79 1    
    18    8   80 1    
    19    9   10 ar   
    20    9   14 ar   
    21   10   11 ar   
    22   10   81 1    
    23   11   12 ar   
    24   11   71 1    
    25   12   13 ar   
    26   12   82 1    
    27   13   14 ar   
    28   13   15 1    
    29   14   83 1    
    30   15   16 1    
    31   15   84 1    
    32   15   85 1    
    33   16   17 1    
    34   17   18 1    
    35   17   86 1    
    36   17   87 1    
    37   18   19 1    
    38   18   37 1    
    39   18   88 1    
    40   19   20 am   BACKBONE|DICT|INTERRES
    41   19   89 1    
    42   20   21 2    
    43   20   22 1    
    44   22   23 1    
    45   22   24 1    
    46   22   90 1    
    47   23   91 1    
    48   23   92 1    
    49   23   93 1    
    50   24   25 am   BACKBONE|DICT|INTERRES
    51   24   94 1    
    52   25   26 2    
    53   25   27 1    
    54   27   28 1    
    55   27   29 1    
    56   27   95 1    
    57   28   96 1    
    58   28   97 1    
    59   28   98 1    
    60   29   30 am   BACKBONE|DICT|INTERRES
    61   29   99 1    
    62   30   31 2    
    63   30   32 1    
    64   32   33 1    
    65   32   34 1    
    66   32  100 1    
    67   33  101 1    
    68   33  102 1    
    69   33  103 1    
    70   34   35 am   BACKBONE|DICT|INTERRES
    71   34  104 1    
    72   35   36 2    
    73   37   38 2    
    74   37   39 am   BACKBONE|DICT|INTERRES
    75   39   40 1    
    76   39  105 1    
    77   40   41 1    
    78   40   42 1    
    79   40  106 1    
    80   41  107 1    
    81   41  108 1    
    82   41  109 1    
    83   42   43 2    
    84   42   44 am   BACKBONE|DICT|INTERRES
    85   44   45 1    
    86   44  110 1    
    87   45   46 1    
    88   45   47 1    
    89   45  111 1    
    90   46  112 1    
    91   46  113 1    
    92   46  114 1    
    93   47   48 2    
    94   47   49 am   BACKBONE|DICT|INTERRES
    95   49   50 1    
    96   49  115 1    
    97   50   51 1    
    98   50   52 1    
    99   50  116 1    
   100   51  117 1    
   101   51  118 1    
   102   51  119 1    
   103   52   53 2    
   104   52   54 am   BACKBONE|DICT|INTERRES
   105   54   55 1    
   106   54  120 1    
   107   55   56 1    
   108   55   57 1    
   109   55  121 1    
   110   56  122 1    
   111   56  123 1    
   112   56  124 1    
   113   57   58 2    
   114   57   59 am   BACKBONE|DICT|INTERRES
   115   59   60 1    
   116   59  125 1    
   117   60   61 1    
   118   60   62 1    
   119   60  126 1    
   120   61  127 1    
   121   61  128 1    
   122   61  129 1    
   123   62   63 2    
   124   62   64 am   BACKBONE|DICT|INTERRES
   125   64   65 1    
   126   64  130 1    
   127   65   66 1    
   128   65   69 1    
   129   65  131 1    
   130   66   67 am   BACKBONE|DICT|INTERRES
   131   66   68 2    
   132   67  132 1    
   133   67  133 1    
   134   69   70 1    
   135   69  134 1    
   136   69  135 1    
   137   70   71 1    
   138   71  136 1    
   139   71  137 1    
@<TRIPOS>SUBSTRUCTURE
     1 UNK         1 GROUP             0       ****    0 ROOT    
