@<TRIPOS>MOLECULE
3R136
137   139    1
SMALL
USER_CHARGES


@<TRIPOS>ATOM
      1 CA         29.7273   27.2362    2.8899 C.3       0 UNK        -0.1979 
      2 C          29.2039   25.8397    3.1806 C.2       0 UNK         0.4864 
      3 O          28.7560   25.5697    4.2951 O.2       0 UNK        -0.5359 
      4 N          29.2259   24.9613    2.1705 N.am      1 UNK        -0.4318 
      5 CA         28.6843   23.5965    2.2163 C.3       1 UNK         0.0824 
      6 C6         29.2680   22.7276    1.0714 C.3       12 UNK        -0.0944 
      7 S7         30.9720   22.1850    1.4292 S.3       12 UNK        -0.2672 
      8 C8         31.9607   23.0482    0.1642 C.3       12 UNK         0.0333 
      9 C9         32.3003   24.4830    0.5500 C.ar      12 UNK        -0.0807 
     10 C10        32.9541   24.7541    1.7563 C.ar      12 UNK        -0.0894 
     11 C11        33.3136   26.0611    2.0952 C.ar      12 UNK        -0.0804 
     12 C12        33.0037   27.1090    1.2217 C.ar      12 UNK        -0.0824 
     13 C13        32.3711   26.8494    0.0008 C.ar      12 UNK        -0.0762 
     14 C14        32.0245   25.5343   -0.3290 C.ar      12 UNK        -0.0782 
     15 C15        32.1157   27.9804   -0.9877 C.3       12 UNK         0.0230 
     16 S16        30.4791   28.7436   -0.7696 S.3       12 UNK        -0.2608 
     17 C17        29.3812   27.4201   -1.3765 C.3       12 UNK        -0.0989 
     18 CA         27.8873   27.8243   -1.4181 C.3       5 UNK         0.0716 
     19 N          27.0643   26.7648   -1.9882 N.am      5 UNK        -0.4135 
     20 C          26.9465   26.4843   -3.2905 C.2       4 UNK         0.5031 
     21 O          27.5181   27.1157   -4.1802 O.2       4 UNK        -0.5229 
     22 CA         26.0554   25.2901   -3.6745 C.3       4 UNK         0.0329 
     23 CB         26.9124   24.0281   -3.8664 C.3       4 UNK        -0.2001 
     24 N          25.0108   25.0091   -2.6878 N.am      4 UNK        -0.4303 
     25 C          23.8826   25.7113   -2.5319 C.2       3 UNK         0.5044 
     26 O          23.5785   26.6803   -3.2279 O.2       3 UNK        -0.5152 
     27 CA         22.9375   25.2673   -1.3994 C.3       3 UNK         0.0319 
     28 CB         22.2933   23.8988   -1.7004 C.3       3 UNK        -0.2001 
     29 N          23.5511   25.2996   -0.0626 N.am      3 UNK        -0.4354 
     30 C          24.5692   24.5665    0.4111 C.2       2 UNK         0.4964 
     31 O          25.1429   23.6852   -0.2339 O.2       2 UNK        -0.5047 
     32 CA         25.0261   24.9118    1.8362 C.3       2 UNK         0.0288 
     33 CB         24.1652   24.2120    2.9078 C.3       2 UNK        -0.2113 
     34 N          26.4658   24.6840    2.0098 N.am      2 UNK        -0.4145 
     35 C          27.1355   23.5396    2.2241 C.2       1 UNK         0.5006 
     36 O          26.5933   22.4518    2.4304 O.2       1 UNK        -0.5103 
     37 C          27.3354   28.1058   -0.0147 C.2       5 UNK         0.5055 
     38 O          27.0598   27.1533    0.7177 O.2       5 UNK        -0.5220 
     39 N          27.2188   29.3894    0.3411 N.am      6 UNK        -0.4450 
     40 CA         26.7660   29.8566    1.6548 C.3       6 UNK         0.0367 
     41 CB         25.5235   30.7444    1.4630 C.3       6 UNK        -0.1929 
     42 C          27.8676   30.6118    2.4220 C.2       6 UNK         0.5070 
     43 O          27.5968   31.1167    3.5125 O.2       6 UNK        -0.5237 
     44 N          29.0896   30.6850    1.8718 N.am      7 UNK        -0.4739 
     45 CA         30.2352   31.3998    2.4468 C.3       7 UNK         0.0276 
     46 CB         31.2317   31.7472    1.3246 C.3       7 UNK        -0.1927 
     47 C          30.9005   30.6165    3.5948 C.2       7 UNK         0.5013 
     48 O          32.0900   30.3064    3.5239 O.2       7 UNK        -0.5193 
     49 N          30.1261   30.3214    4.6477 N.am      8 UNK        -0.4253 
     50 CA         30.5439   29.5622    5.8341 C.3       8 UNK         0.0242 
     51 CB         29.3418   29.3865    6.7741 C.3       8 UNK        -0.2000 
     52 C          31.7409   30.1701    6.5881 C.2       8 UNK         0.4948 
     53 O          32.5087   29.4297    7.2014 O.2       8 UNK        -0.5275 
     54 N          31.9131   31.4959    6.4882 N.am      9 UNK        -0.4246 
     55 CA         33.0661   32.2360    7.0056 C.3       9 UNK         0.0261 
     56 CB         32.8123   33.7434    6.8433 C.3       9 UNK        -0.1959 
     57 C          34.4052   31.8436    6.3506 C.2       9 UNK         0.5033 
     58 O          35.4452   31.9899    6.9944 O.2       9 UNK        -0.5390 
     59 N          34.3719   31.3391    5.1067 N.am      10 UNK        -0.4215 
     60 CA         35.5540   30.8528    4.3901 C.3       10 UNK         0.0240 
     61 CB         35.2699   30.8420    2.8783 C.3       10 UNK        -0.1982 
     62 C          36.0088   29.4594    4.8595 C.2       10 UNK         0.4970 
     63 O          37.1448   29.0804    4.5724 O.2       10 UNK        -0.4916 
     64 N          35.1323   28.7180    5.5517 N.am      11 UNK        -0.4279 
     65 CA         35.4067   27.3673    6.0637 C.3       11 UNK         0.1003 
     66 C          36.2677   27.3402    7.3608 C.2       11 UNK         0.5709 
     67 N          36.5545   28.4694    7.9994 N.am      11 UNK        -0.7358 
     68 O          36.6955   26.2712    7.7899 O.2       11 UNK        -0.4999 
     69 C69        34.1036   26.5391    6.2411 C.3       12 UNK        -0.0954 
     70 S70        32.9680   26.4897    4.8075 S.3       12 UNK        -0.2268 
     71 C71        34.0825   26.3252    3.3807 C.3       12 UNK         0.0203 
     72 H72        29.0254   27.9780    3.2663 H         1 UNK         0.0888 
     73 H73        29.8588   27.4057    1.8227 H         1 UNK         0.0888 
     74 H74        30.6871   27.3961    3.3744 H         1 UNK         0.0888 
     75 H75        29.6493   25.2312    1.2954 H         1 UNK         0.3017 
     76 H76        28.9899   23.1545    3.1674 H         1 UNK         0.0873 
     77 H77        29.2214   23.2542    0.1165 H         1 UNK         0.0745 
     78 H78        28.6868   21.8136    0.9327 H         1 UNK         0.0745 
     79 H79        32.8953   22.5024    0.0290 H         1 UNK         0.0705 
     80 H80        31.4432   23.0043   -0.7954 H         1 UNK         0.0705 
     81 H81        33.1961   23.9419    2.4284 H         1 UNK         0.1334 
     82 H82        33.2788   28.1229    1.4803 H         1 UNK         0.1417 
     83 H83        31.5574   25.3279   -1.2824 H         1 UNK         0.1562 
     84 H84        32.2164   27.6196   -2.0125 H         1 UNK         0.0748 
     85 H85        32.8764   28.7532   -0.8665 H         1 UNK         0.0748 
     86 H86        29.5067   26.5346   -0.7531 H         1 UNK         0.0940 
     87 H87        29.7176   27.1405   -2.3762 H         1 UNK         0.0940 
     88 H88        27.7699   28.7208   -2.0311 H         1 UNK         0.0703 
     89 H89        26.5512   26.2193   -1.3090 H         1 UNK         0.3081 
     90 H90        25.5768   25.5277   -4.6270 H         1 UNK         0.0719 
     91 H91        27.4045   23.7286   -2.9400 H         1 UNK         0.0809 
     92 H92        26.3091   23.1885   -4.2122 H         1 UNK         0.0809 
     93 H93        27.6917   24.1941   -4.6118 H         1 UNK         0.0809 
     94 H94        25.1840   24.2615   -2.0194 H         1 UNK         0.2990 
     95 H95        22.1291   25.9997   -1.3667 H         1 UNK         0.0690 
     96 H96        21.5581   23.6336   -0.9406 H         1 UNK         0.0788 
     97 H97        23.0284   23.0949   -1.7470 H         1 UNK         0.0788 
     98 H98        21.7746   23.9170   -2.6598 H         1 UNK         0.0788 
     99 H99        23.1685   26.0067    0.5507 H         1 UNK         0.2993 
    100 H100       24.8995   25.9879    1.9673 H         1 UNK         0.0949 
    101 H101       23.1356   24.5699    2.8717 H         1 UNK         0.0767 
    102 H102       24.1304   23.1316    2.7646 H         1 UNK         0.0767 
    103 H103       24.5419   24.4083    3.9117 H         1 UNK         0.0767 
    104 H104       27.0219   25.5069    1.7963 H         1 UNK         0.3013 
    105 H105       27.4739   30.1062   -0.3249 H         1 UNK         0.3121 
    106 H106       26.4808   29.0102    2.2833 H         1 UNK         0.0774 
    107 H107       24.7251   30.2022    0.9561 H         1 UNK         0.0815 
    108 H108       25.7500   31.6352    0.8760 H         1 UNK         0.0815 
    109 H109       25.1256   31.0780    2.4224 H         1 UNK         0.0815 
    110 H110       29.2636   30.1891    1.0086 H         1 UNK         0.2987 
    111 H111       29.8784   32.3421    2.8688 H         1 UNK         0.0949 
    112 H112       31.6844   30.8541    0.8935 H         1 UNK         0.0806 
    113 H113       30.7511   32.3041    0.5203 H         1 UNK         0.0806 
    114 H114       32.0450   32.3663    1.7055 H         1 UNK         0.0806 
    115 H115       29.1525   30.6090    4.5972 H         1 UNK         0.3010 
    116 H116       30.8547   28.5733    5.4936 H         1 UNK         0.0829 
    117 H117       28.5286   28.8534    6.2808 H         1 UNK         0.0813 
    118 H118       29.6179   28.8072    7.6565 H         1 UNK         0.0813 
    119 H119       28.9555   30.3461    7.1199 H         1 UNK         0.0813 
    120 H120       31.2260   32.0249    5.9714 H         1 UNK         0.3038 
    121 H121       33.1492   32.0145    8.0717 H         1 UNK         0.0769 
    122 H122       32.6979   34.0240    5.7954 H         1 UNK         0.0811 
    123 H123       33.6433   34.3242    7.2467 H         1 UNK         0.0811 
    124 H124       31.9140   34.0555    7.3763 H         1 UNK         0.0811 
    125 H125       33.4778   31.1895    4.6466 H         1 UNK         0.3204 
    126 H126       36.3783   31.5458    4.5720 H         1 UNK         0.0748 
    127 H127       34.9219   31.8145    2.5296 H         1 UNK         0.0771 
    128 H128       36.1724   30.5995    2.3157 H         1 UNK         0.0771 
    129 H129       34.5166   30.1001    2.6124 H         1 UNK         0.0771 
    130 H130       34.2228   29.0970    5.7814 H         1 UNK         0.2980 
    131 H131       36.0141   26.8523    5.3179 H         1 UNK         0.0545 
    132 H132       37.1174   28.4348    8.8345 H         1 UNK         0.3459 
    133 H133       36.2100   29.3530    7.6573 H         1 UNK         0.3459 
    134 H134       34.3517   25.5054    6.4883 H         1 UNK         0.0616 
    135 H135       33.5329   26.9186    7.0902 H         1 UNK         0.0616 
    136 H136       34.7848   25.5106    3.5639 H         1 UNK         0.0634 
    137 H137       34.6777   27.2314    3.2696 H         1 UNK         0.0634 
@<TRIPOS>BOND
     1    1    2 1    
     2    1   72 1    
     3    1   73 1    
     4    1   74 1    
     5    2    3 2    
     6    2    4 am   BACKBONE|DICT|INTERRES
     7    4    5 1    
     8    4   75 1    
     9    5    6 1    
    10    5   35 1    
    11    5   76 1    
    12    6    7 1    
    13    6   77 1    
    14    6   78 1    
    15    7    8 1    
    16    8    9 1    
    17    8   79 1    
    18    8   80 1    
    19    9   10 ar   
    20    9   14 ar   
    21   10   11 ar   
    22   10   81 1    
    23   11   12 ar   
    24   11   71 1    
    25   12   13 ar   
    26   12   82 1    
    27   13   14 ar   
    28   13   15 1    
    29   14   83 1    
    30   15   16 1    
    31   15   84 1    
    32   15   85 1    
    33   16   17 1    
    34   17   18 1    
    35   17   86 1    
    36   17   87 1    
    37   18   19 1    
    38   18   37 1    
    39   18   88 1    
    40   19   20 am   BACKBONE|DICT|INTERRES
    41   19   89 1    
    42   20   21 2    
    43   20   22 1    
    44   22   23 1    
    45   22   24 1    
    46   22   90 1    
    47   23   91 1    
    48   23   92 1    
    49   23   93 1    
    50   24   25 am   BACKBONE|DICT|INTERRES
    51   24   94 1    
    52   25   26 2    
    53   25   27 1    
    54   27   28 1    
    55   27   29 1    
    56   27   95 1    
    57   28   96 1    
    58   28   97 1    
    59   28   98 1    
    60   29   30 am   BACKBONE|DICT|INTERRES
    61   29   99 1    
    62   30   31 2    
    63   30   32 1    
    64   32   33 1    
    65   32   34 1    
    66   32  100 1    
    67   33  101 1    
    68   33  102 1    
    69   33  103 1    
    70   34   35 am   BACKBONE|DICT|INTERRES
    71   34  104 1    
    72   35   36 2    
    73   37   38 2    
    74   37   39 am   BACKBONE|DICT|INTERRES
    75   39   40 1    
    76   39  105 1    
    77   40   41 1    
    78   40   42 1    
    79   40  106 1    
    80   41  107 1    
    81   41  108 1    
    82   41  109 1    
    83   42   43 2    
    84   42   44 am   BACKBONE|DICT|INTERRES
    85   44   45 1    
    86   44  110 1    
    87   45   46 1    
    88   45   47 1    
    89   45  111 1    
    90   46  112 1    
    91   46  113 1    
    92   46  114 1    
    93   47   48 2    
    94   47   49 am   BACKBONE|DICT|INTERRES
    95   49   50 1    
    96   49  115 1    
    97   50   51 1    
    98   50   52 1    
    99   50  116 1    
   100   51  117 1    
   101   51  118 1    
   102   51  119 1    
   103   52   53 2    
   104   52   54 am   BACKBONE|DICT|INTERRES
   105   54   55 1    
   106   54  120 1    
   107   55   56 1    
   108   55   57 1    
   109   55  121 1    
   110   56  122 1    
   111   56  123 1    
   112   56  124 1    
   113   57   58 2    
   114   57   59 am   BACKBONE|DICT|INTERRES
   115   59   60 1    
   116   59  125 1    
   117   60   61 1    
   118   60   62 1    
   119   60  126 1    
   120   61  127 1    
   121   61  128 1    
   122   61  129 1    
   123   62   63 2    
   124   62   64 am   BACKBONE|DICT|INTERRES
   125   64   65 1    
   126   64  130 1    
   127   65   66 1    
   128   65   69 1    
   129   65  131 1    
   130   66   67 am   BACKBONE|DICT|INTERRES
   131   66   68 2    
   132   67  132 1    
   133   67  133 1    
   134   69   70 1    
   135   69  134 1    
   136   69  135 1    
   137   70   71 1    
   138   71  136 1    
   139   71  137 1    
@<TRIPOS>SUBSTRUCTURE
     1 UNK         1 GROUP             0       ****    0 ROOT    
