@<TRIPOS>MOLECULE
3R136
137   139    1
SMALL
USER_CHARGES


@<TRIPOS>ATOM
      1 CA         29.7848   21.8121   -3.2352 C.3       0 UNK        -0.1979 
      2 C          29.3926   22.0797   -1.7911 C.2       0 UNK         0.4864 
      3 O          28.8255   23.1356   -1.5007 O.2       0 UNK        -0.5359 
      4 N          29.6684   21.1279   -0.8877 N.am      1 UNK        -0.4318 
      5 CA         29.4417   21.1910    0.5661 C.3       1 UNK         0.0824 
      6 C6         30.2880   20.1278    1.3168 C.3       12 UNK        -0.0944 
      7 S7         32.0825   20.3638    1.0787 S.3       12 UNK        -0.2672 
      8 C8         32.5639   21.1566    2.6478 C.3       12 UNK         0.0333 
      9 C9         31.9989   22.5649    2.7640 C.ar      12 UNK        -0.0807 
     10 C10        32.6559   23.6362    2.1495 C.ar      12 UNK        -0.0894 
     11 C11        32.1343   24.9299    2.2358 C.ar      12 UNK        -0.0804 
     12 C12        30.9442   25.1429    2.9334 C.ar      12 UNK        -0.0824 
     13 C13        30.2800   24.0852    3.5577 C.ar      12 UNK        -0.0762 
     14 C14        30.8177   22.7975    3.4778 C.ar      12 UNK        -0.0782 
     15 C15        28.9812   24.3346    4.3095 C.3       12 UNK         0.0230 
     16 S16        27.5577   24.2548    3.1783 S.3       12 UNK        -0.2608 
     17 C17        26.8165   25.9146    3.3608 C.3       12 UNK        -0.0989 
     18 CA         27.5957   27.0186    2.6040 C.3       5 UNK         0.0716 
     19 N          27.7979   26.6893    1.1918 N.am      5 UNK        -0.4135 
     20 C          28.5353   27.3828    0.3131 C.2       4 UNK         0.5031 
     21 O          29.0847   28.4565    0.5610 O.2       4 UNK        -0.5229 
     22 CA         28.7373   26.7587   -1.0780 C.3       4 UNK         0.0329 
     23 CB         30.1229   26.0953   -1.1561 C.3       4 UNK        -0.2001 
     24 N          27.7131   25.7755   -1.4428 N.am      4 UNK        -0.4303 
     25 C          26.4577   26.0884   -1.7968 C.2       3 UNK         0.5044 
     26 O          26.0257   27.2407   -1.8380 O.2       3 UNK        -0.5152 
     27 CA         25.5259   24.9264   -2.1796 C.3       3 UNK         0.0319 
     28 CB         25.6981   24.5694   -3.6650 C.3       3 UNK        -0.2001 
     29 N          25.7407   23.7267   -1.3694 N.am      3 UNK        -0.4354 
     30 C          25.3586   23.5859   -0.0911 C.2       2 UNK         0.4964 
     31 O          24.7690   24.4539    0.5513 O.2       2 UNK        -0.5047 
     32 CA         25.7327   22.2621    0.5842 C.3       2 UNK         0.0288 
     33 CB         24.8564   21.1030    0.0702 C.3       2 UNK        -0.2113 
     34 N          27.1491   22.0086    0.3454 N.am      2 UNK        -0.4145 
     35 C          27.9430   21.1276    0.9555 C.2       1 UNK         0.5006 
     36 O          27.5424   20.3074    1.7844 O.2       1 UNK        -0.5103 
     37 C          26.9423   28.4019    2.7878 C.2       5 UNK         0.5055 
     38 O          25.7923   28.5897    2.3834 O.2       5 UNK        -0.5220 
     39 N          27.6846   29.3358    3.3918 N.am      6 UNK        -0.4450 
     40 CA         27.2764   30.7154    3.6363 C.3       6 UNK         0.0367 
     41 CB         27.5797   31.5643    2.3870 C.3       6 UNK        -0.1929 
     42 C          28.0228   31.2629    4.8583 C.2       6 UNK         0.5070 
     43 O          29.0295   30.6903    5.2812 O.2       6 UNK        -0.5237 
     44 N          27.5435   32.3940    5.3880 N.am      7 UNK        -0.4739 
     45 CA         28.1946   33.1534    6.4587 C.3       7 UNK         0.0276 
     46 CB         27.1301   33.9834    7.2010 C.3       7 UNK        -0.1927 
     47 C          29.3314   34.0212    5.8842 C.2       7 UNK         0.5013 
     48 O          29.2141   35.2479    5.8471 O.2       7 UNK        -0.5193 
     49 N          30.3899   33.3614    5.4038 N.am      8 UNK        -0.4253 
     50 CA         31.5535   33.9675    4.7638 C.3       8 UNK         0.0242 
     51 CB         31.4056   33.8378    3.2369 C.3       8 UNK        -0.2000 
     52 C          32.8258   33.2600    5.2396 C.2       8 UNK         0.4948 
     53 O          32.7711   32.0882    5.6213 O.2       8 UNK        -0.5275 
     54 N          33.9601   33.9699    5.1607 N.am      9 UNK        -0.4246 
     55 CA         35.2939   33.4542    5.4952 C.3       9 UNK         0.0261 
     56 CB         36.2983   34.6175    5.5317 C.3       9 UNK        -0.1959 
     57 C          35.7807   32.3516    4.5367 C.2       9 UNK         0.5033 
     58 O          36.5354   31.4748    4.9571 O.2       9 UNK        -0.5390 
     59 N          35.3077   32.3890    3.2836 N.am      10 UNK        -0.4215 
     60 CA         35.5402   31.3774    2.2487 C.3       10 UNK         0.0240 
     61 CB         35.6510   32.0842    0.8839 C.3       10 UNK        -0.1982 
     62 C          34.4515   30.2820    2.2543 C.2       10 UNK         0.4970 
     63 O          34.1077   29.7721    1.1876 O.2       10 UNK        -0.4916 
     64 N          33.9165   29.9743    3.4445 N.am      11 UNK        -0.4279 
     65 CA         32.8720   28.9973    3.8103 C.3       11 UNK         0.1003 
     66 C          31.5009   29.0612    3.0787 C.2       11 UNK         0.5709 
     67 N          31.3816   29.6527    1.9015 N.am      11 UNK        -0.7358 
     68 O          30.5129   28.5640    3.6102 O.2       11 UNK        -0.4999 
     69 C69        33.3916   27.5360    3.9779 C.3       12 UNK        -0.0954 
     70 S70        34.2128   26.7687    2.5341 S.3       12 UNK        -0.2268 
     71 C71        32.8336   26.0949    1.5510 C.3       12 UNK         0.0203 
     72 H72        28.9008   21.8259   -3.8720 H         1 UNK         0.0888 
     73 H73        30.4686   22.5853   -3.5842 H         1 UNK         0.0888 
     74 H74        30.2752   20.8460   -3.3529 H         1 UNK         0.0888 
     75 H75        30.1209   20.2817   -1.2029 H         1 UNK         0.3017 
     76 H76        29.7834   22.1743    0.8963 H         1 UNK         0.0873 
     77 H77        30.0752   20.1386    2.3869 H         1 UNK         0.0745 
     78 H78        30.0266   19.1251    0.9738 H         1 UNK         0.0745 
     79 H79        33.6530   21.1950    2.7022 H         1 UNK         0.0705 
     80 H80        32.2410   20.5384    3.4870 H         1 UNK         0.0705 
     81 H81        33.5696   23.4619    1.5976 H         1 UNK         0.1334 
     82 H82        30.5376   26.1388    2.9880 H         1 UNK         0.1417 
     83 H83        30.3054   21.9744    3.9571 H         1 UNK         0.1562 
     84 H84        29.0227   25.3022    4.8119 H         1 UNK         0.0748 
     85 H85        28.8498   23.5904    5.0964 H         1 UNK         0.0748 
     86 H86        26.7417   26.1524    4.4238 H         1 UNK         0.0940 
     87 H87        25.7898   25.8582    2.9924 H         1 UNK         0.0940 
     88 H88        28.5838   27.0661    3.0524 H         1 UNK         0.0703 
     89 H89        27.3700   25.8311    0.8797 H         1 UNK         0.3081 
     90 H90        28.7073   27.5699   -1.8086 H         1 UNK         0.0719 
     91 H91        30.9138   26.8206   -0.9604 H         1 UNK         0.0809 
     92 H92        30.3074   25.6730   -2.1439 H         1 UNK         0.0809 
     93 H93        30.2277   25.2929   -0.4240 H         1 UNK         0.0809 
     94 H94        28.0123   24.8026   -1.4719 H         1 UNK         0.2990 
     95 H95        24.4975   25.2617   -2.0276 H         1 UNK         0.0690 
     96 H96        24.9880   23.8020   -3.9737 H         1 UNK         0.0788 
     97 H97        26.7034   24.2038   -3.8794 H         1 UNK         0.0788 
     98 H98        25.5261   25.4413   -4.2980 H         1 UNK         0.0788 
     99 H99        26.2149   22.9592   -1.8230 H         1 UNK         0.2993 
    100 H100       25.5786   22.3757    1.6594 H         1 UNK         0.0949 
    101 H101       23.7970   21.3316    0.1943 H         1 UNK         0.0767 
    102 H102       25.0274   20.9022   -0.9879 H         1 UNK         0.0767 
    103 H103       25.0516   20.1819    0.6193 H         1 UNK         0.0767 
    104 H104       27.6127   22.6322   -0.3144 H         1 UNK         0.3013 
    105 H105       28.6330   29.1139    3.6953 H         1 UNK         0.3121 
    106 H106       26.2061   30.7450    3.8520 H         1 UNK         0.0774 
    107 H107       27.2801   32.6033    2.5286 H         1 UNK         0.0815 
    108 H108       28.6451   31.5596    2.1512 H         1 UNK         0.0815 
    109 H109       27.0451   31.1907    1.5135 H         1 UNK         0.0815 
    110 H110       26.7319   32.8226    4.9655 H         1 UNK         0.2987 
    111 H111       28.6384   32.4615    7.1787 H         1 UNK         0.0949 
    112 H112       26.3673   33.3433    7.6446 H         1 UNK         0.0806 
    113 H113       27.5799   34.5583    8.0117 H         1 UNK         0.0806 
    114 H114       26.6300   34.6907    6.5380 H         1 UNK         0.0806 
    115 H115       30.4140   32.3492    5.4859 H         1 UNK         0.3010 
    116 H116       31.6248   35.0230    5.0361 H         1 UNK         0.0829 
    117 H117       30.4993   34.3312    2.8849 H         1 UNK         0.0813 
    118 H118       32.2458   34.2984    2.7162 H         1 UNK         0.0813 
    119 H119       31.3575   32.7931    2.9245 H         1 UNK         0.0813 
    120 H120       33.9139   34.9276    4.8411 H         1 UNK         0.3038 
    121 H121       35.2416   33.0170    6.4948 H         1 UNK         0.0769 
    122 H122       36.3822   35.1119    4.5631 H         1 UNK         0.0811 
    123 H123       37.2940   34.2640    5.8038 H         1 UNK         0.0811 
    124 H124       36.0113   35.3674    6.2691 H         1 UNK         0.0811 
    125 H125       34.6786   33.1404    3.0411 H         1 UNK         0.3204 
    126 H126       36.4911   30.8758    2.4401 H         1 UNK         0.0748 
    127 H127       35.9095   31.3772    0.0944 H         1 UNK         0.0771 
    128 H128       34.7130   32.5630    0.5998 H         1 UNK         0.0771 
    129 H129       36.4287   32.8481    0.8950 H         1 UNK         0.0771 
    130 H130       34.2542   30.5082    4.2324 H         1 UNK         0.2980 
    131 H131       32.6097   29.3191    4.8192 H         1 UNK         0.0545 
    132 H132       32.2206   29.9476    1.4165 H         1 UNK         0.3459 
    133 H133       30.4945   29.5810    1.4165 H         1 UNK         0.3459 
    134 H134       32.5969   26.8796    4.3331 H         1 UNK         0.0616 
    135 H135       34.1300   27.5293    4.7807 H         1 UNK         0.0616 
    136 H136       33.2272   25.7616    0.5897 H         1 UNK         0.0634 
    137 H137       32.1236   26.8888    1.3191 H         1 UNK         0.0634 
@<TRIPOS>BOND
     1    1    2 1    
     2    1   72 1    
     3    1   73 1    
     4    1   74 1    
     5    2    3 2    
     6    2    4 am   BACKBONE|DICT|INTERRES
     7    4    5 1    
     8    4   75 1    
     9    5    6 1    
    10    5   35 1    
    11    5   76 1    
    12    6    7 1    
    13    6   77 1    
    14    6   78 1    
    15    7    8 1    
    16    8    9 1    
    17    8   79 1    
    18    8   80 1    
    19    9   10 ar   
    20    9   14 ar   
    21   10   11 ar   
    22   10   81 1    
    23   11   12 ar   
    24   11   71 1    
    25   12   13 ar   
    26   12   82 1    
    27   13   14 ar   
    28   13   15 1    
    29   14   83 1    
    30   15   16 1    
    31   15   84 1    
    32   15   85 1    
    33   16   17 1    
    34   17   18 1    
    35   17   86 1    
    36   17   87 1    
    37   18   19 1    
    38   18   37 1    
    39   18   88 1    
    40   19   20 am   BACKBONE|DICT|INTERRES
    41   19   89 1    
    42   20   21 2    
    43   20   22 1    
    44   22   23 1    
    45   22   24 1    
    46   22   90 1    
    47   23   91 1    
    48   23   92 1    
    49   23   93 1    
    50   24   25 am   BACKBONE|DICT|INTERRES
    51   24   94 1    
    52   25   26 2    
    53   25   27 1    
    54   27   28 1    
    55   27   29 1    
    56   27   95 1    
    57   28   96 1    
    58   28   97 1    
    59   28   98 1    
    60   29   30 am   BACKBONE|DICT|INTERRES
    61   29   99 1    
    62   30   31 2    
    63   30   32 1    
    64   32   33 1    
    65   32   34 1    
    66   32  100 1    
    67   33  101 1    
    68   33  102 1    
    69   33  103 1    
    70   34   35 am   BACKBONE|DICT|INTERRES
    71   34  104 1    
    72   35   36 2    
    73   37   38 2    
    74   37   39 am   BACKBONE|DICT|INTERRES
    75   39   40 1    
    76   39  105 1    
    77   40   41 1    
    78   40   42 1    
    79   40  106 1    
    80   41  107 1    
    81   41  108 1    
    82   41  109 1    
    83   42   43 2    
    84   42   44 am   BACKBONE|DICT|INTERRES
    85   44   45 1    
    86   44  110 1    
    87   45   46 1    
    88   45   47 1    
    89   45  111 1    
    90   46  112 1    
    91   46  113 1    
    92   46  114 1    
    93   47   48 2    
    94   47   49 am   BACKBONE|DICT|INTERRES
    95   49   50 1    
    96   49  115 1    
    97   50   51 1    
    98   50   52 1    
    99   50  116 1    
   100   51  117 1    
   101   51  118 1    
   102   51  119 1    
   103   52   53 2    
   104   52   54 am   BACKBONE|DICT|INTERRES
   105   54   55 1    
   106   54  120 1    
   107   55   56 1    
   108   55   57 1    
   109   55  121 1    
   110   56  122 1    
   111   56  123 1    
   112   56  124 1    
   113   57   58 2    
   114   57   59 am   BACKBONE|DICT|INTERRES
   115   59   60 1    
   116   59  125 1    
   117   60   61 1    
   118   60   62 1    
   119   60  126 1    
   120   61  127 1    
   121   61  128 1    
   122   61  129 1    
   123   62   63 2    
   124   62   64 am   BACKBONE|DICT|INTERRES
   125   64   65 1    
   126   64  130 1    
   127   65   66 1    
   128   65   69 1    
   129   65  131 1    
   130   66   67 am   BACKBONE|DICT|INTERRES
   131   66   68 2    
   132   67  132 1    
   133   67  133 1    
   134   69   70 1    
   135   69  134 1    
   136   69  135 1    
   137   70   71 1    
   138   71  136 1    
   139   71  137 1    
@<TRIPOS>SUBSTRUCTURE
     1 UNK         1 GROUP             0       ****    0 ROOT    
