@<TRIPOS>MOLECULE
3R136
137   139    1
SMALL
USER_CHARGES


@<TRIPOS>ATOM
      1 CA         25.3407   25.5197    4.2854 C.3       0 UNK        -0.1979 
      2 C          25.8568   24.4638    3.3200 C.2       0 UNK         0.4864 
      3 O          25.1377   23.5086    3.0214 O.2       0 UNK        -0.5359 
      4 N          27.0885   24.6322    2.8212 N.am      1 UNK        -0.4318 
      5 CA         27.7626   23.7538    1.8597 C.3       1 UNK         0.0824 
      6 C6         29.2099   24.2133    1.5752 C.3       12 UNK        -0.0944 
      7 S7         30.3016   24.1070    3.0324 S.3       12 UNK        -0.2672 
      8 C8         31.8797   23.5928    2.2782 C.3       12 UNK         0.0333 
      9 C9         32.4594   24.6666    1.3652 C.ar      12 UNK        -0.0807 
     10 C10        33.3296   25.6370    1.8728 C.ar      12 UNK        -0.0894 
     11 C11        33.8800   26.6072    1.0276 C.ar      12 UNK        -0.0804 
     12 C12        33.5270   26.6246   -0.3256 C.ar      12 UNK        -0.0824 
     13 C13        32.6482   25.6675   -0.8412 C.ar      12 UNK        -0.0762 
     14 C14        32.1415   24.6770    0.0035 C.ar      12 UNK        -0.0782 
     15 C15        32.2579   25.6896   -2.3130 C.3       12 UNK         0.0230 
     16 S16        31.0318   26.9854   -2.6898 S.3       12 UNK        -0.2608 
     17 C17        29.5364   26.3906   -1.8212 C.3       12 UNK        -0.0989 
     18 CA         28.6266   27.5530   -1.3320 C.3       5 UNK         0.0716 
     19 N          27.2091   27.1636   -1.3629 N.am      5 UNK        -0.4135 
     20 C          26.2175   27.9398   -1.8214 C.2       4 UNK         0.5031 
     21 O          26.3800   29.1132   -2.1581 O.2       4 UNK        -0.5229 
     22 CA         24.8116   27.3353   -1.9441 C.3       4 UNK         0.0329 
     23 CB         24.6338   26.6705   -3.3215 C.3       4 UNK        -0.2001 
     24 N          24.4681   26.3760   -0.8885 N.am      4 UNK        -0.4303 
     25 C          23.2171   26.1996   -0.4294 C.2       3 UNK         0.5044 
     26 O          22.2725   26.9243   -0.7497 O.2       3 UNK        -0.5152 
     27 CA         22.9583   25.0148    0.5314 C.3       3 UNK         0.0319 
     28 CB         21.4967   24.5211    0.4898 C.3       3 UNK        -0.2001 
     29 N          23.8822   23.8903    0.3483 N.am      3 UNK        -0.4354 
     30 C          24.1299   23.2033   -0.7806 C.2       2 UNK         0.4964 
     31 O          23.4702   23.3245   -1.8137 O.2       2 UNK        -0.5047 
     32 CA         25.3499   22.2526   -0.7686 C.3       2 UNK         0.0288 
     33 CB         26.0756   22.2282   -2.1315 C.3       2 UNK        -0.2113 
     34 N          26.3102   22.5262    0.3132 N.am      2 UNK        -0.4145 
     35 C          26.9546   23.6803    0.5502 C.2       1 UNK         0.5006 
     36 O          26.8663   24.6818   -0.1681 O.2       1 UNK        -0.5103 
     37 C          29.0471   28.1387    0.0382 C.2       5 UNK         0.5055 
     38 O          30.2340   28.1366    0.3619 O.2       5 UNK        -0.5220 
     39 N          28.0764   28.6477    0.8144 N.am      6 UNK        -0.4450 
     40 CA         28.2277   29.2336    2.1516 C.3       6 UNK         0.0367 
     41 CB         29.0213   30.5595    2.0905 C.3       6 UNK        -0.1929 
     42 C          28.7770   28.2030    3.1571 C.2       6 UNK         0.5070 
     43 O          28.1934   27.1265    3.2748 O.2       6 UNK        -0.5237 
     44 N          29.8541   28.5349    3.8724 N.am      7 UNK        -0.4739 
     45 CA         30.5395   27.6678    4.8242 C.3       7 UNK         0.0276 
     46 CB         29.7970   27.6728    6.1735 C.3       7 UNK        -0.1927 
     47 C          31.9730   28.1763    4.9858 C.2       7 UNK         0.5013 
     48 O          32.2348   29.3479    4.7003 O.2       7 UNK        -0.5193 
     49 N          32.8659   27.3182    5.4982 N.am      8 UNK        -0.4253 
     50 CA         34.2894   27.6135    5.7175 C.3       8 UNK         0.0242 
     51 CB         34.9861   26.3745    6.3004 C.3       8 UNK        -0.2000 
     52 C          34.5638   28.8526    6.5923 C.2       8 UNK         0.4948 
     53 O          35.5550   29.5465    6.3635 O.2       8 UNK        -0.5275 
     54 N          33.6571   29.1370    7.5381 N.am      9 UNK        -0.4246 
     55 CA         33.6630   30.3423    8.3706 C.3       9 UNK         0.0261 
     56 CB         32.6224   30.1862    9.4915 C.3       9 UNK        -0.1959 
     57 C          33.4124   31.6433    7.5824 C.2       9 UNK         0.5033 
     58 O          33.8842   32.6968    8.0126 O.2       9 UNK        -0.5390 
     59 N          32.6876   31.5581    6.4571 N.am      10 UNK        -0.4215 
     60 CA         32.4711   32.6687    5.5289 C.3       10 UNK         0.0240 
     61 CB         31.1106   32.5104    4.8304 C.3       10 UNK        -0.1982 
     62 C          33.6062   32.7559    4.4973 C.2       10 UNK         0.4970 
     63 O          33.9917   33.8672    4.1318 O.2       10 UNK        -0.4916 
     64 N          34.1246   31.5992    4.0561 N.am      11 UNK        -0.4279 
     65 CA         35.2918   31.4944    3.1649 C.3       11 UNK         0.1003 
     66 C          36.5874   32.0894    3.7832 C.2       11 UNK         0.5709 
     67 N          36.8908   31.7939    5.0418 N.am      11 UNK        -0.7358 
     68 O          37.3174   32.8199    3.1173 O.2       11 UNK        -0.4999 
     69 C69        35.5603   30.0413    2.6961 C.3       12 UNK        -0.0954 
     70 S70        34.1343   29.2286    1.9069 S.3       12 UNK        -0.2268 
     71 C71        34.8879   27.6106    1.5648 C.3       12 UNK         0.0203 
     72 H72        26.1440   26.1538    4.6594 H         1 UNK         0.0888 
     73 H73        24.8630   25.0451    5.1420 H         1 UNK         0.0888 
     74 H74        24.6055   26.1535    3.7908 H         1 UNK         0.0888 
     75 H75        27.6000   25.4835    3.0602 H         1 UNK         0.3017 
     76 H76        27.8038   22.7555    2.3002 H         1 UNK         0.0873 
     77 H77        29.2270   25.2443    1.2178 H         1 UNK         0.0745 
     78 H78        29.6301   23.5954    0.7818 H         1 UNK         0.0745 
     79 H79        32.5891   23.3642    3.0749 H         1 UNK         0.0705 
     80 H80        31.7348   22.6617    1.7280 H         1 UNK         0.0705 
     81 H81        33.5911   25.6271    2.9221 H         1 UNK         0.1334 
     82 H82        33.9359   27.3840   -0.9779 H         1 UNK         0.1417 
     83 H83        31.4880   23.9189   -0.4030 H         1 UNK         0.1562 
     84 H84        31.8645   24.7213   -2.6267 H         1 UNK         0.0748 
     85 H85        33.1489   25.8644   -2.9179 H         1 UNK         0.0748 
     86 H86        29.8027   25.7307   -0.9972 H         1 UNK         0.0940 
     87 H87        28.9975   25.7630   -2.5330 H         1 UNK         0.0940 
     88 H88        28.7587   28.3749   -2.0390 H         1 UNK         0.0703 
     89 H89        27.0140   26.2170   -1.0405 H         1 UNK         0.3081 
     90 H90        24.1240   28.1824   -1.8900 H         1 UNK         0.0719 
     91 H91        25.2636   25.7858   -3.4241 H         1 UNK         0.0809 
     92 H92        23.6003   26.3628   -3.4825 H         1 UNK         0.0809 
     93 H93        24.8958   27.3570   -4.1279 H         1 UNK         0.0809 
     94 H94        25.1985   25.7463   -0.5730 H         1 UNK         0.2990 
     95 H95        23.1476   25.3983    1.5349 H         1 UNK         0.0690 
     96 H96        21.3365   23.6982    1.1865 H         1 UNK         0.0788 
     97 H97        21.2151   24.1774   -0.5060 H         1 UNK         0.0788 
     98 H98        20.8042   25.3166    0.7677 H         1 UNK         0.0788 
     99 H99        24.4515   23.6744    1.1625 H         1 UNK         0.2993 
    100 H100       24.9506   21.2542   -0.5834 H         1 UNK         0.0949 
    101 H101       25.4112   21.8837   -2.9249 H         1 UNK         0.0767 
    102 H102       26.4352   23.2176   -2.4168 H         1 UNK         0.0767 
    103 H103       26.9311   21.5530   -2.1135 H         1 UNK         0.0767 
    104 H104       26.4075   21.7856    0.9950 H         1 UNK         0.3013 
    105 H105       27.1297   28.5855    0.4697 H         1 UNK         0.3121 
    106 H106       27.2197   29.4735    2.4929 H         1 UNK         0.0774 
    107 H107       28.5848   31.2432    1.3625 H         1 UNK         0.0815 
    108 H108       30.0650   30.4062    1.8122 H         1 UNK         0.0815 
    109 H109       29.0024   31.0703    3.0535 H         1 UNK         0.0815 
    110 H110       30.3359   29.4061    3.6884 H         1 UNK         0.2987 
    111 H111       30.5774   26.6543    4.4218 H         1 UNK         0.0949 
    112 H112       29.7409   28.6762    6.5976 H         1 UNK         0.0806 
    113 H113       28.7787   27.2984    6.0671 H         1 UNK         0.0806 
    114 H114       30.2969   27.0347    6.9029 H         1 UNK         0.0806 
    115 H115       32.5603   26.3837    5.7297 H         1 UNK         0.3010 
    116 H116       34.7238   27.8135    4.7381 H         1 UNK         0.0829 
    117 H117       34.9011   25.5183    5.6308 H         1 UNK         0.0813 
    118 H118       36.0508   26.5603    6.4501 H         1 UNK         0.0813 
    119 H119       34.5659   26.0909    7.2661 H         1 UNK         0.0813 
    120 H120       32.8807   28.5033    7.6586 H         1 UNK         0.3038 
    121 H121       34.6507   30.4248    8.8293 H         1 UNK         0.0769 
    122 H122       31.6124   30.0776    9.0939 H         1 UNK         0.0811 
    123 H123       32.6220   31.0583   10.1470 H         1 UNK         0.0811 
    124 H124       32.8353   29.3167   10.1137 H         1 UNK         0.0811 
    125 H125       32.3896   30.6444    6.1295 H         1 UNK         0.3204 
    126 H126       32.4510   33.6067    6.0881 H         1 UNK         0.0748 
    127 H127       30.2989   32.4270    5.5533 H         1 UNK         0.0771 
    128 H128       30.8967   33.3740    4.1994 H         1 UNK         0.0771 
    129 H129       31.0837   31.6294    4.1903 H         1 UNK         0.0771 
    130 H130       33.7003   30.7259    4.3462 H         1 UNK         0.2980 
    131 H131       35.0608   32.0859    2.2769 H         1 UNK         0.0545 
    132 H132       37.7265   32.1769    5.4530 H         1 UNK         0.3459 
    133 H133       36.3289   31.1259    5.5624 H         1 UNK         0.3459 
    134 H134       36.3840   30.0281    1.9797 H         1 UNK         0.0616 
    135 H135       35.8822   29.4278    3.5384 H         1 UNK         0.0616 
    136 H136       35.3493   27.2250    2.4749 H         1 UNK         0.0634 
    137 H137       35.6966   27.7394    0.8439 H         1 UNK         0.0634 
@<TRIPOS>BOND
     1    1    2 1    
     2    1   72 1    
     3    1   73 1    
     4    1   74 1    
     5    2    3 2    
     6    2    4 am   BACKBONE|DICT|INTERRES
     7    4    5 1    
     8    4   75 1    
     9    5    6 1    
    10    5   35 1    
    11    5   76 1    
    12    6    7 1    
    13    6   77 1    
    14    6   78 1    
    15    7    8 1    
    16    8    9 1    
    17    8   79 1    
    18    8   80 1    
    19    9   10 ar   
    20    9   14 ar   
    21   10   11 ar   
    22   10   81 1    
    23   11   12 ar   
    24   11   71 1    
    25   12   13 ar   
    26   12   82 1    
    27   13   14 ar   
    28   13   15 1    
    29   14   83 1    
    30   15   16 1    
    31   15   84 1    
    32   15   85 1    
    33   16   17 1    
    34   17   18 1    
    35   17   86 1    
    36   17   87 1    
    37   18   19 1    
    38   18   37 1    
    39   18   88 1    
    40   19   20 am   BACKBONE|DICT|INTERRES
    41   19   89 1    
    42   20   21 2    
    43   20   22 1    
    44   22   23 1    
    45   22   24 1    
    46   22   90 1    
    47   23   91 1    
    48   23   92 1    
    49   23   93 1    
    50   24   25 am   BACKBONE|DICT|INTERRES
    51   24   94 1    
    52   25   26 2    
    53   25   27 1    
    54   27   28 1    
    55   27   29 1    
    56   27   95 1    
    57   28   96 1    
    58   28   97 1    
    59   28   98 1    
    60   29   30 am   BACKBONE|DICT|INTERRES
    61   29   99 1    
    62   30   31 2    
    63   30   32 1    
    64   32   33 1    
    65   32   34 1    
    66   32  100 1    
    67   33  101 1    
    68   33  102 1    
    69   33  103 1    
    70   34   35 am   BACKBONE|DICT|INTERRES
    71   34  104 1    
    72   35   36 2    
    73   37   38 2    
    74   37   39 am   BACKBONE|DICT|INTERRES
    75   39   40 1    
    76   39  105 1    
    77   40   41 1    
    78   40   42 1    
    79   40  106 1    
    80   41  107 1    
    81   41  108 1    
    82   41  109 1    
    83   42   43 2    
    84   42   44 am   BACKBONE|DICT|INTERRES
    85   44   45 1    
    86   44  110 1    
    87   45   46 1    
    88   45   47 1    
    89   45  111 1    
    90   46  112 1    
    91   46  113 1    
    92   46  114 1    
    93   47   48 2    
    94   47   49 am   BACKBONE|DICT|INTERRES
    95   49   50 1    
    96   49  115 1    
    97   50   51 1    
    98   50   52 1    
    99   50  116 1    
   100   51  117 1    
   101   51  118 1    
   102   51  119 1    
   103   52   53 2    
   104   52   54 am   BACKBONE|DICT|INTERRES
   105   54   55 1    
   106   54  120 1    
   107   55   56 1    
   108   55   57 1    
   109   55  121 1    
   110   56  122 1    
   111   56  123 1    
   112   56  124 1    
   113   57   58 2    
   114   57   59 am   BACKBONE|DICT|INTERRES
   115   59   60 1    
   116   59  125 1    
   117   60   61 1    
   118   60   62 1    
   119   60  126 1    
   120   61  127 1    
   121   61  128 1    
   122   61  129 1    
   123   62   63 2    
   124   62   64 am   BACKBONE|DICT|INTERRES
   125   64   65 1    
   126   64  130 1    
   127   65   66 1    
   128   65   69 1    
   129   65  131 1    
   130   66   67 am   BACKBONE|DICT|INTERRES
   131   66   68 2    
   132   67  132 1    
   133   67  133 1    
   134   69   70 1    
   135   69  134 1    
   136   69  135 1    
   137   70   71 1    
   138   71  136 1    
   139   71  137 1    
@<TRIPOS>SUBSTRUCTURE
     1 UNK         1 GROUP             0       ****    0 ROOT    
