@<TRIPOS>MOLECULE
3R136
137   139    1
SMALL
USER_CHARGES


@<TRIPOS>ATOM
      1 CA         26.7278   17.8352    0.7409 C.3       0 UNK        -0.1979 
      2 C          27.2956   19.2465    0.6972 C.2       0 UNK         0.4864 
      3 O          26.5349   20.2098    0.8029 O.2       0 UNK        -0.5359 
      4 N          28.6222   19.3661    0.5435 N.am      1 UNK        -0.4318 
      5 CA         29.3866   20.6179    0.4564 C.3       1 UNK         0.0824 
      6 C6         29.3948   21.4409    1.7762 C.3       12 UNK        -0.0944 
      7 S7         30.0845   20.5127    3.1909 S.3       12 UNK        -0.2672 
      8 C8         31.7340   21.2782    3.4029 C.3       12 UNK         0.0333 
      9 C9         31.7157   22.7942    3.6052 C.ar      12 UNK        -0.0807 
     10 C10        32.7513   23.5707    3.0747 C.ar      12 UNK        -0.0894 
     11 C11        32.7456   24.9627    3.2131 C.ar      12 UNK        -0.0804 
     12 C12        31.6788   25.5854    3.8681 C.ar      12 UNK        -0.0824 
     13 C13        30.6368   24.8219    4.4031 C.ar      12 UNK        -0.0762 
     14 C14        30.6772   23.4292    4.2960 C.ar      12 UNK        -0.0782 
     15 C15        29.4370   25.4949    5.0500 C.3       12 UNK         0.0230 
     16 S16        27.9781   25.3024    3.9796 S.3       12 UNK        -0.2608 
     17 C17        27.0157   26.8085    4.3415 C.3       12 UNK        -0.0989 
     18 CA         27.6222   28.1115    3.7517 C.3       5 UNK         0.0716 
     19 N          28.2043   27.9264    2.4192 N.am      5 UNK        -0.4135 
     20 C          28.9779   28.8203    1.7895 C.2       4 UNK         0.5031 
     21 O          29.2808   29.9163    2.2586 O.2       4 UNK        -0.5229 
     22 CA         29.4677   28.4489    0.3796 C.3       4 UNK         0.0329 
     23 CB         30.7689   27.6336    0.4758 C.3       4 UNK        -0.2001 
     24 N          28.4972   27.7026   -0.4270 N.am      4 UNK        -0.4303 
     25 C          27.2036   27.9990   -0.6262 C.2       3 UNK         0.5044 
     26 O          26.6536   28.9956   -0.1549 O.2       3 UNK        -0.5152 
     27 CA         26.3667   27.0125   -1.4693 C.3       3 UNK         0.0319 
     28 CB         25.8295   27.7077   -2.7314 C.3       3 UNK        -0.2001 
     29 N          27.0668   25.7811   -1.8647 N.am      3 UNK        -0.4354 
     30 C          27.4881   24.8185   -1.0320 C.2       2 UNK         0.4964 
     31 O          27.3277   24.8537    0.1910 O.2       2 UNK        -0.5047 
     32 CA         28.2682   23.6599   -1.6698 C.3       2 UNK         0.0288 
     33 CB         29.5446   24.1615   -2.3793 C.3       2 UNK        -0.2113 
     34 N          28.6298   22.7106   -0.6222 N.am      2 UNK        -0.4145 
     35 C          28.9760   21.4296   -0.7954 C.2       1 UNK         0.5006 
     36 O          29.0071   20.8792   -1.8994 O.2       1 UNK        -0.5103 
     37 C          26.5779   29.2466    3.7760 C.2       5 UNK         0.5055 
     38 O          26.5464   30.0209    4.7328 O.2       5 UNK        -0.5220 
     39 N          25.7559   29.3331    2.7191 N.am      6 UNK        -0.4450 
     40 CA         24.7392   30.3722    2.5384 C.3       6 UNK         0.0367 
     41 CB         23.6835   29.8907    1.5300 C.3       6 UNK        -0.1929 
     42 C          25.3573   31.7030    2.0836 C.2       6 UNK         0.5070 
     43 O          24.8859   32.7632    2.4942 O.2       6 UNK        -0.5237 
     44 N          26.4189   31.6236    1.2694 N.am      7 UNK        -0.4739 
     45 CA         27.2175   32.7670    0.8168 C.3       7 UNK         0.0276 
     46 CB         28.0769   32.3242   -0.3787 C.3       7 UNK        -0.1927 
     47 C          28.1093   33.3769    1.9176 C.2       7 UNK         0.5013 
     48 O          28.6236   34.4786    1.7214 O.2       7 UNK        -0.5193 
     49 N          28.2920   32.6472    3.0295 N.am      8 UNK        -0.4253 
     50 CA         29.1823   32.9314    4.1616 C.3       8 UNK         0.0242 
     51 CB         28.7575   34.2166    4.9036 C.3       8 UNK        -0.2000 
     52 C          30.6709   32.9246    3.7597 C.2       8 UNK         0.4948 
     53 O          31.4673   33.6894    4.3084 O.2       8 UNK        -0.5275 
     54 N          31.0259   32.0442    2.8159 N.am      9 UNK        -0.4246 
     55 CA         32.3839   31.8226    2.3328 C.3       9 UNK         0.0261 
     56 CB         32.3261   31.4089    0.8513 C.3       9 UNK        -0.1959 
     57 C          33.0532   30.7626    3.2181 C.2       9 UNK         0.5033 
     58 O          33.0922   29.5856    2.8543 O.2       9 UNK        -0.5390 
     59 N          33.5230   31.1969    4.3941 N.am      10 UNK        -0.4215 
     60 CA         34.2142   30.3694    5.3819 C.3       10 UNK         0.0240 
     61 CB         34.3380   31.1523    6.7010 C.3       10 UNK        -0.1982 
     62 C          35.5877   29.9162    4.8581 C.2       10 UNK         0.4970 
     63 O          36.5404   30.6978    4.8824 O.2       10 UNK        -0.4916 
     64 N          35.6487   28.6718    4.3752 N.am      11 UNK        -0.4279 
     65 CA         36.8535   28.0217    3.8387 C.3       11 UNK         0.1003 
     66 C          37.9085   27.5962    4.9034 C.2       11 UNK         0.5709 
     67 N          37.6085   27.6388    6.1965 N.am      11 UNK        -0.7358 
     68 O          39.0280   27.2353    4.5472 O.2       11 UNK        -0.4999 
     69 C69        36.4838   26.8596    2.8770 C.3       12 UNK        -0.0954 
     70 S70        35.3960   25.6024    3.6359 S.3       12 UNK        -0.2268 
     71 C71        33.8847   25.7918    2.6401 C.3       12 UNK         0.0203 
     72 H72        27.5064   17.0784    0.6458 H         1 UNK         0.0888 
     73 H73        26.2084   17.6695    1.6844 H         1 UNK         0.0888 
     74 H74        26.0150   17.6923   -0.0708 H         1 UNK         0.0888 
     75 H75        29.1755   18.5270    0.4416 H         1 UNK         0.3017 
     76 H76        30.4184   20.3186    0.2651 H         1 UNK         0.0873 
     77 H77        28.3852   21.7563    2.0456 H         1 UNK         0.0745 
     78 H78        29.9717   22.3572    1.6458 H         1 UNK         0.0745 
     79 H79        32.2237   20.8189    4.2623 H         1 UNK         0.0705 
     80 H80        32.3376   21.0235    2.5302 H         1 UNK         0.0705 
     81 H81        33.5690   23.0935    2.5513 H         1 UNK         0.1334 
     82 H82        31.6544   26.6641    3.9494 H         1 UNK         0.1417 
     83 H83        29.8658   22.8466    4.7102 H         1 UNK         0.1562 
     84 H84        29.6428   26.5513    5.2247 H         1 UNK         0.0748 
     85 H85        29.2363   25.0498    6.0256 H         1 UNK         0.0748 
     86 H86        26.8929   26.9018    5.4223 H         1 UNK         0.0940 
     87 H87        26.0143   26.6336    3.9420 H         1 UNK         0.0940 
     88 H88        28.4394   28.4233    4.4054 H         1 UNK         0.0703 
     89 H89        28.0224   27.0377    1.9727 H         1 UNK         0.3081 
     90 H90        29.6803   29.3778   -0.1507 H         1 UNK         0.0719 
     91 H91        31.5108   28.1434    1.0922 H         1 UNK         0.0809 
     92 H92        30.5999   26.6533    0.9244 H         1 UNK         0.0809 
     93 H93        31.2172   27.4812   -0.5060 H         1 UNK         0.0809 
     94 H94        28.8397   26.8587   -0.8600 H         1 UNK         0.2990 
     95 H95        25.5132   26.7232   -0.8527 H         1 UNK         0.0690 
     96 H96        25.2608   28.6029   -2.4748 H         1 UNK         0.0788 
     97 H97        25.1607   27.0539   -3.2916 H         1 UNK         0.0788 
     98 H98        26.6370   28.0153   -3.3970 H         1 UNK         0.0788 
     99 H99        27.2513   25.6756   -2.8524 H         1 UNK         0.2993 
    100 H100       27.6111   23.1656   -2.3887 H         1 UNK         0.0949 
    101 H101       30.1029   23.3371   -2.8232 H         1 UNK         0.0767 
    102 H102       29.3106   24.8527   -3.1895 H         1 UNK         0.0767 
    103 H103       30.2120   24.6780   -1.6880 H         1 UNK         0.0767 
    104 H104       28.5326   23.0845    0.3144 H         1 UNK         0.3013 
    105 H105       25.9043   28.7103    1.9354 H         1 UNK         0.3121 
    106 H106       24.2418   30.5440    3.4957 H         1 UNK         0.0774 
    107 H107       22.8981   30.6372    1.4041 H         1 UNK         0.0815 
    108 H108       24.1154   29.7048    0.5459 H         1 UNK         0.0815 
    109 H109       23.2043   28.9709    1.8657 H         1 UNK         0.0815 
    110 H110       26.6920   30.7080    0.9245 H         1 UNK         0.2987 
    111 H111       26.5338   33.5494    0.4802 H         1 UNK         0.0949 
    112 H112       28.6212   33.1692   -0.8025 H         1 UNK         0.0806 
    113 H113       28.8148   31.5777   -0.0859 H         1 UNK         0.0806 
    114 H114       27.4655   31.8991   -1.1751 H         1 UNK         0.0806 
    115 H115       27.8528   31.7362    3.0466 H         1 UNK         0.3010 
    116 H116       29.0570   32.0974    4.8539 H         1 UNK         0.0829 
    117 H117       28.9254   35.1090    4.3001 H         1 UNK         0.0813 
    118 H118       27.7021   34.1872    5.1747 H         1 UNK         0.0813 
    119 H119       29.3254   34.3394    5.8266 H         1 UNK         0.0813 
    120 H120       30.3263   31.3718    2.5025 H         1 UNK         0.3038 
    121 H121       32.9624   32.7467    2.3996 H         1 UNK         0.0769 
    122 H122       31.7300   30.5093    0.7046 H         1 UNK         0.0811 
    123 H123       33.3252   31.2060    0.4638 H         1 UNK         0.0811 
    124 H124       31.8919   32.1986    0.2380 H         1 UNK         0.0811 
    125 H125       33.4161   32.1782    4.6154 H         1 UNK         0.3204 
    126 H126       33.6020   29.4856    5.5750 H         1 UNK         0.0748 
    127 H127       34.8542   30.5609    7.4584 H         1 UNK         0.0771 
    128 H128       34.8987   32.0794    6.5735 H         1 UNK         0.0771 
    129 H129       33.3573   31.4077    7.1034 H         1 UNK         0.0771 
    130 H130       34.8092   28.1115    4.3567 H         1 UNK         0.2980 
    131 H131       37.3640   28.7705    3.2300 H         1 UNK         0.0545 
    132 H132       38.3035   27.3666    6.8735 H         1 UNK         0.3459 
    133 H133       36.6928   27.9271    6.4993 H         1 UNK         0.3459 
    134 H134       37.3807   26.3618    2.5039 H         1 UNK         0.0616 
    135 H135       35.9936   27.2691    1.9924 H         1 UNK         0.0616 
    136 H136       33.6067   26.8463    2.5980 H         1 UNK         0.0634 
    137 H137       34.0856   25.4819    1.6135 H         1 UNK         0.0634 
@<TRIPOS>BOND
     1    1    2 1    
     2    1   72 1    
     3    1   73 1    
     4    1   74 1    
     5    2    3 2    
     6    2    4 am   BACKBONE|DICT|INTERRES
     7    4    5 1    
     8    4   75 1    
     9    5    6 1    
    10    5   35 1    
    11    5   76 1    
    12    6    7 1    
    13    6   77 1    
    14    6   78 1    
    15    7    8 1    
    16    8    9 1    
    17    8   79 1    
    18    8   80 1    
    19    9   10 ar   
    20    9   14 ar   
    21   10   11 ar   
    22   10   81 1    
    23   11   12 ar   
    24   11   71 1    
    25   12   13 ar   
    26   12   82 1    
    27   13   14 ar   
    28   13   15 1    
    29   14   83 1    
    30   15   16 1    
    31   15   84 1    
    32   15   85 1    
    33   16   17 1    
    34   17   18 1    
    35   17   86 1    
    36   17   87 1    
    37   18   19 1    
    38   18   37 1    
    39   18   88 1    
    40   19   20 am   BACKBONE|DICT|INTERRES
    41   19   89 1    
    42   20   21 2    
    43   20   22 1    
    44   22   23 1    
    45   22   24 1    
    46   22   90 1    
    47   23   91 1    
    48   23   92 1    
    49   23   93 1    
    50   24   25 am   BACKBONE|DICT|INTERRES
    51   24   94 1    
    52   25   26 2    
    53   25   27 1    
    54   27   28 1    
    55   27   29 1    
    56   27   95 1    
    57   28   96 1    
    58   28   97 1    
    59   28   98 1    
    60   29   30 am   BACKBONE|DICT|INTERRES
    61   29   99 1    
    62   30   31 2    
    63   30   32 1    
    64   32   33 1    
    65   32   34 1    
    66   32  100 1    
    67   33  101 1    
    68   33  102 1    
    69   33  103 1    
    70   34   35 am   BACKBONE|DICT|INTERRES
    71   34  104 1    
    72   35   36 2    
    73   37   38 2    
    74   37   39 am   BACKBONE|DICT|INTERRES
    75   39   40 1    
    76   39  105 1    
    77   40   41 1    
    78   40   42 1    
    79   40  106 1    
    80   41  107 1    
    81   41  108 1    
    82   41  109 1    
    83   42   43 2    
    84   42   44 am   BACKBONE|DICT|INTERRES
    85   44   45 1    
    86   44  110 1    
    87   45   46 1    
    88   45   47 1    
    89   45  111 1    
    90   46  112 1    
    91   46  113 1    
    92   46  114 1    
    93   47   48 2    
    94   47   49 am   BACKBONE|DICT|INTERRES
    95   49   50 1    
    96   49  115 1    
    97   50   51 1    
    98   50   52 1    
    99   50  116 1    
   100   51  117 1    
   101   51  118 1    
   102   51  119 1    
   103   52   53 2    
   104   52   54 am   BACKBONE|DICT|INTERRES
   105   54   55 1    
   106   54  120 1    
   107   55   56 1    
   108   55   57 1    
   109   55  121 1    
   110   56  122 1    
   111   56  123 1    
   112   56  124 1    
   113   57   58 2    
   114   57   59 am   BACKBONE|DICT|INTERRES
   115   59   60 1    
   116   59  125 1    
   117   60   61 1    
   118   60   62 1    
   119   60  126 1    
   120   61  127 1    
   121   61  128 1    
   122   61  129 1    
   123   62   63 2    
   124   62   64 am   BACKBONE|DICT|INTERRES
   125   64   65 1    
   126   64  130 1    
   127   65   66 1    
   128   65   69 1    
   129   65  131 1    
   130   66   67 am   BACKBONE|DICT|INTERRES
   131   66   68 2    
   132   67  132 1    
   133   67  133 1    
   134   69   70 1    
   135   69  134 1    
   136   69  135 1    
   137   70   71 1    
   138   71  136 1    
   139   71  137 1    
@<TRIPOS>SUBSTRUCTURE
     1 UNK         1 GROUP             0       ****    0 ROOT    
