@<TRIPOS>MOLECULE
3R136
137   139    1
SMALL
USER_CHARGES


@<TRIPOS>ATOM
      1 CA         25.0627   20.1922    1.9110 C.3       0 UNK        -0.1979 
      2 C          26.2837   20.1284    1.0051 C.2       0 UNK         0.4864 
      3 O          26.1912   19.6046   -0.1057 O.2       0 UNK        -0.5359 
      4 N          27.4244   20.6507    1.4766 N.am      1 UNK        -0.4318 
      5 CA         28.6924   20.7238    0.7422 C.3       1 UNK         0.0824 
      6 C6         29.8558   21.0948    1.6948 C.3       12 UNK        -0.0944 
      7 S7         31.5146   20.9609    0.9443 S.3       12 UNK        -0.2672 
      8 C8         32.5845   21.0558    2.4168 C.3       12 UNK         0.0333 
      9 C9         32.4895   22.4097    3.1084 C.ar      12 UNK        -0.0807 
     10 C10        33.3557   23.4495    2.7596 C.ar      12 UNK        -0.0894 
     11 C11        33.2725   24.6884    3.4039 C.ar      12 UNK        -0.0804 
     12 C12        32.3038   24.8892    4.3926 C.ar      12 UNK        -0.0824 
     13 C13        31.4163   23.8611    4.7366 C.ar      12 UNK        -0.0762 
     14 C14        31.5350   22.6198    4.1065 C.ar      12 UNK        -0.0782 
     15 C15        30.3253   24.0461    5.7891 C.3       12 UNK         0.0230 
     16 S16        29.5512   25.6977    5.8181 S.3       12 UNK        -0.2608 
     17 C17        28.9596   25.9281    4.1019 C.3       12 UNK        -0.0989 
     18 CA         29.1148   27.4100    3.6797 C.3       5 UNK         0.0716 
     19 N          29.2312   27.5965    2.2301 N.am      5 UNK        -0.4135 
     20 C          29.6807   28.7344    1.6733 C.2       4 UNK         0.5031 
     21 O          30.0994   29.6897    2.3263 O.2       4 UNK        -0.5229 
     22 CA         29.6243   28.8654    0.1408 C.3       4 UNK         0.0329 
     23 CB         30.9354   28.3716   -0.4878 C.3       4 UNK        -0.2001 
     24 N          28.4991   28.1573   -0.4671 N.am      4 UNK        -0.4303 
     25 C          27.2046   28.3572   -0.1798 C.2       3 UNK         0.5044 
     26 O          26.8031   29.2486    0.5664 O.2       3 UNK        -0.5152 
     27 CA         26.1921   27.3611   -0.7772 C.3       3 UNK         0.0319 
     28 CB         25.4384   28.0026   -1.9526 C.3       3 UNK        -0.2001 
     29 N          26.7929   26.0945   -1.2174 N.am      3 UNK        -0.4354 
     30 C          27.4216   25.2195   -0.4196 C.2       2 UNK         0.4964 
     31 O          27.5495   25.3622    0.8014 O.2       2 UNK        -0.5047 
     32 CA         28.1016   24.0423   -1.1217 C.3       2 UNK         0.0288 
     33 CB         29.4832   24.4762   -1.6560 C.3       2 UNK        -0.2113 
     34 N          28.2453   22.9539   -0.1627 N.am      2 UNK        -0.4145 
     35 C          28.5869   21.6927   -0.4538 C.2       1 UNK         0.5006 
     36 O          28.7966   21.2817   -1.5973 O.2       1 UNK        -0.5103 
     37 C          27.9995   28.2979    4.2675 C.2       5 UNK         0.5055 
     38 O          28.2424   29.0030    5.2489 O.2       5 UNK        -0.5220 
     39 N          26.8225   28.2928    3.6205 N.am      6 UNK        -0.4450 
     40 CA         25.6568   29.1122    3.9768 C.3       6 UNK         0.0367 
     41 CB         24.4516   28.6976    3.1175 C.3       6 UNK        -0.1929 
     42 C          25.9140   30.6264    3.8635 C.2       6 UNK         0.5070 
     43 O          25.3236   31.3989    4.6174 O.2       6 UNK        -0.5237 
     44 N          26.8397   31.0169    2.9781 N.am      7 UNK        -0.4739 
     45 CA         27.3913   32.3681    2.8381 C.3       7 UNK         0.0276 
     46 CB         27.9636   32.5154    1.4173 C.3       7 UNK        -0.1927 
     47 C          28.4368   32.7358    3.9191 C.2       7 UNK         0.5013 
     48 O          29.1925   33.6869    3.7174 O.2       7 UNK        -0.5193 
     49 N          28.4565   31.9970    5.0392 N.am      8 UNK        -0.4253 
     50 CA         29.3280   32.1331    6.2105 C.3       8 UNK         0.0242 
     51 CB         29.1778   33.5188    6.8766 C.3       8 UNK        -0.2000 
     52 C          30.7844   31.7527    5.8970 C.2       8 UNK         0.4948 
     53 O          31.7006   32.5216    6.1948 O.2       8 UNK        -0.5275 
     54 N          30.9558   30.5547    5.3163 N.am      9 UNK        -0.4246 
     55 CA         32.2278   29.9259    4.9329 C.3       9 UNK         0.0261 
     56 CB         33.0364   29.5194    6.1824 C.3       9 UNK        -0.1959 
     57 C          33.0361   30.7825    3.9399 C.2       9 UNK         0.5033 
     58 O          34.2067   31.0853    4.1768 O.2       9 UNK        -0.5390 
     59 N          32.3905   31.1340    2.8229 N.am      10 UNK        -0.4215 
     60 CA         32.9414   31.9211    1.7157 C.3       10 UNK         0.0240 
     61 CB         31.7823   32.6608    1.0232 C.3       10 UNK        -0.1982 
     62 C          33.7511   31.0746    0.7095 C.2       10 UNK         0.4970 
     63 O          33.9403   31.5094   -0.4277 O.2       10 UNK        -0.4916 
     64 N          34.1842   29.8771    1.1225 N.am      11 UNK        -0.4279 
     65 CA         34.9613   28.9108    0.3368 C.3       11 UNK         0.1003 
     66 C          36.3211   29.4776   -0.1583 C.2       11 UNK         0.5709 
     67 N          36.7442   29.1142   -1.3615 N.am      11 UNK        -0.7358 
     68 O          37.0130   30.2029    0.5545 O.2       11 UNK        -0.4999 
     69 C69        35.1858   27.6028    1.1373 C.3       12 UNK        -0.0954 
     70 S70        33.6342   26.7825    1.6352 S.3       12 UNK        -0.2268 
     71 C71        34.2428   25.8000    3.0381 C.3       12 UNK         0.0203 
     72 H72        25.2846   20.6735    2.8634 H         1 UNK         0.0888 
     73 H73        24.2648   20.7536    1.4257 H         1 UNK         0.0888 
     74 H74        24.6957   19.1871    2.1172 H         1 UNK         0.0888 
     75 H75        27.4287   21.0545    2.4023 H         1 UNK         0.3017 
     76 H76        28.8926   19.7281    0.3398 H         1 UNK         0.0873 
     77 H77        29.7264   22.1080    2.0787 H         1 UNK         0.0745 
     78 H78        29.8340   20.4333    2.5625 H         1 UNK         0.0745 
     79 H79        32.3216   20.2553    3.1102 H         1 UNK         0.0705 
     80 H80        33.6154   20.8663    2.1140 H         1 UNK         0.0705 
     81 H81        34.0980   23.2942    1.9883 H         1 UNK         0.1334 
     82 H82        32.2372   25.8488    4.8863 H         1 UNK         0.1417 
     83 H83        30.8684   21.8142    4.3824 H         1 UNK         0.1562 
     84 H84        30.7548   23.8470    6.7717 H         1 UNK         0.0748 
     85 H85        29.5321   23.3106    5.6453 H         1 UNK         0.0748 
     86 H86        27.9281   25.5808    4.0146 H         1 UNK         0.0940 
     87 H87        29.5428   25.2925    3.4346 H         1 UNK         0.0940 
     88 H88        30.0574   27.7651    4.0992 H         1 UNK         0.0703 
     89 H89        28.8709   26.8566    1.6387 H         1 UNK         0.3081 
     90 H90        29.5091   29.9250   -0.0943 H         1 UNK         0.0719 
     91 H91        31.0940   27.3064   -0.3136 H         1 UNK         0.0809 
     92 H92        30.9523   28.5442   -1.5640 H         1 UNK         0.0809 
     93 H93        31.7900   28.8989   -0.0651 H         1 UNK         0.0809 
     94 H94        28.7271   27.4120   -1.1071 H         1 UNK         0.2990 
     95 H95        25.4693   27.1295    0.0080 H         1 UNK         0.0690 
     96 H96        24.6547   27.3449   -2.3290 H         1 UNK         0.0788 
     97 H97        26.1071   28.2395   -2.7812 H         1 UNK         0.0788 
     98 H98        24.9573   28.9329   -1.6463 H         1 UNK         0.0788 
     99 H99        26.7503   25.9019   -2.2085 H         1 UNK         0.2993 
    100 H100       27.4691   23.7051   -1.9458 H         1 UNK         0.0949 
    101 H101       29.9792   23.6673   -2.1923 H         1 UNK         0.0767 
    102 H102       29.3955   25.3098   -2.3537 H         1 UNK         0.0767 
    103 H103       30.1452   24.7913   -0.8478 H         1 UNK         0.0767 
    104 H104       28.0528   23.2206    0.7947 H         1 UNK         0.3013 
    105 H105       26.7300   27.7172    2.7962 H         1 UNK         0.3121 
    106 H106       25.4180   28.9021    5.0216 H         1 UNK         0.0774 
    107 H107       24.6245   28.8843    2.0574 H         1 UNK         0.0815 
    108 H108       23.5608   29.2587    3.4032 H         1 UNK         0.0815 
    109 H109       24.2193   27.6397    3.2404 H         1 UNK         0.0815 
    110 H110       27.2116   30.3133    2.3496 H         1 UNK         0.2987 
    111 H111       26.5722   33.0824    2.9443 H         1 UNK         0.0949 
    112 H112       28.8138   31.8530    1.2625 H         1 UNK         0.0806 
    113 H113       27.2149   32.2802    0.6605 H         1 UNK         0.0806 
    114 H114       28.3039   33.5344    1.2292 H         1 UNK         0.0806 
    115 H115       27.8306   31.2018    5.0711 H         1 UNK         0.3010 
    116 H116       28.9746   31.3929    6.9305 H         1 UNK         0.0829 
    117 H117       29.5656   34.3201    6.2472 H         1 UNK         0.0813 
    118 H118       28.1344   33.7412    7.0996 H         1 UNK         0.0813 
    119 H119       29.7258   33.5568    7.8188 H         1 UNK         0.0813 
    120 H120       30.1184   30.0226    5.1052 H         1 UNK         0.3038 
    121 H121       31.9763   29.0083    4.4005 H         1 UNK         0.0769 
    122 H122       33.9373   28.9719    5.9026 H         1 UNK         0.0811 
    123 H123       33.3511   30.3877    6.7624 H         1 UNK         0.0811 
    124 H124       32.4542   28.8709    6.8370 H         1 UNK         0.0811 
    125 H125       31.4501   30.7595    2.6853 H         1 UNK         0.3204 
    126 H126       33.6229   32.6692    2.1255 H         1 UNK         0.0748 
    127 H127       32.1522   33.3586    0.2710 H         1 UNK         0.0771 
    128 H128       31.1091   31.9655    0.5210 H         1 UNK         0.0771 
    129 H129       31.1964   33.2399    1.7377 H         1 UNK         0.0771 
    130 H130       34.0111   29.6175    2.0806 H         1 UNK         0.2980 
    131 H131       34.3614   28.6710   -0.5433 H         1 UNK         0.0545 
    132 H132       37.6317   29.4588   -1.6928 H         1 UNK         0.3459 
    133 H133       36.1921   28.5084   -1.9485 H         1 UNK         0.3459 
    134 H134       35.7579   26.8859    0.5452 H         1 UNK         0.0616 
    135 H135       35.7804   27.8076    2.0302 H         1 UNK         0.0616 
    136 H136       34.4110   26.4582    3.8920 H         1 UNK         0.0634 
    137 H137       35.2123   25.3674    2.7859 H         1 UNK         0.0634 
@<TRIPOS>BOND
     1    1    2 1    
     2    1   72 1    
     3    1   73 1    
     4    1   74 1    
     5    2    3 2    
     6    2    4 am   BACKBONE|DICT|INTERRES
     7    4    5 1    
     8    4   75 1    
     9    5    6 1    
    10    5   35 1    
    11    5   76 1    
    12    6    7 1    
    13    6   77 1    
    14    6   78 1    
    15    7    8 1    
    16    8    9 1    
    17    8   79 1    
    18    8   80 1    
    19    9   10 ar   
    20    9   14 ar   
    21   10   11 ar   
    22   10   81 1    
    23   11   12 ar   
    24   11   71 1    
    25   12   13 ar   
    26   12   82 1    
    27   13   14 ar   
    28   13   15 1    
    29   14   83 1    
    30   15   16 1    
    31   15   84 1    
    32   15   85 1    
    33   16   17 1    
    34   17   18 1    
    35   17   86 1    
    36   17   87 1    
    37   18   19 1    
    38   18   37 1    
    39   18   88 1    
    40   19   20 am   BACKBONE|DICT|INTERRES
    41   19   89 1    
    42   20   21 2    
    43   20   22 1    
    44   22   23 1    
    45   22   24 1    
    46   22   90 1    
    47   23   91 1    
    48   23   92 1    
    49   23   93 1    
    50   24   25 am   BACKBONE|DICT|INTERRES
    51   24   94 1    
    52   25   26 2    
    53   25   27 1    
    54   27   28 1    
    55   27   29 1    
    56   27   95 1    
    57   28   96 1    
    58   28   97 1    
    59   28   98 1    
    60   29   30 am   BACKBONE|DICT|INTERRES
    61   29   99 1    
    62   30   31 2    
    63   30   32 1    
    64   32   33 1    
    65   32   34 1    
    66   32  100 1    
    67   33  101 1    
    68   33  102 1    
    69   33  103 1    
    70   34   35 am   BACKBONE|DICT|INTERRES
    71   34  104 1    
    72   35   36 2    
    73   37   38 2    
    74   37   39 am   BACKBONE|DICT|INTERRES
    75   39   40 1    
    76   39  105 1    
    77   40   41 1    
    78   40   42 1    
    79   40  106 1    
    80   41  107 1    
    81   41  108 1    
    82   41  109 1    
    83   42   43 2    
    84   42   44 am   BACKBONE|DICT|INTERRES
    85   44   45 1    
    86   44  110 1    
    87   45   46 1    
    88   45   47 1    
    89   45  111 1    
    90   46  112 1    
    91   46  113 1    
    92   46  114 1    
    93   47   48 2    
    94   47   49 am   BACKBONE|DICT|INTERRES
    95   49   50 1    
    96   49  115 1    
    97   50   51 1    
    98   50   52 1    
    99   50  116 1    
   100   51  117 1    
   101   51  118 1    
   102   51  119 1    
   103   52   53 2    
   104   52   54 am   BACKBONE|DICT|INTERRES
   105   54   55 1    
   106   54  120 1    
   107   55   56 1    
   108   55   57 1    
   109   55  121 1    
   110   56  122 1    
   111   56  123 1    
   112   56  124 1    
   113   57   58 2    
   114   57   59 am   BACKBONE|DICT|INTERRES
   115   59   60 1    
   116   59  125 1    
   117   60   61 1    
   118   60   62 1    
   119   60  126 1    
   120   61  127 1    
   121   61  128 1    
   122   61  129 1    
   123   62   63 2    
   124   62   64 am   BACKBONE|DICT|INTERRES
   125   64   65 1    
   126   64  130 1    
   127   65   66 1    
   128   65   69 1    
   129   65  131 1    
   130   66   67 am   BACKBONE|DICT|INTERRES
   131   66   68 2    
   132   67  132 1    
   133   67  133 1    
   134   69   70 1    
   135   69  134 1    
   136   69  135 1    
   137   70   71 1    
   138   71  136 1    
   139   71  137 1    
@<TRIPOS>SUBSTRUCTURE
     1 UNK         1 GROUP             0       ****    0 ROOT    
