@<TRIPOS>MOLECULE
3R136
137   139    1
SMALL
USER_CHARGES


@<TRIPOS>ATOM
      1 CA         27.1724   22.4078   -1.7619 C.3       0 UNK        -0.1979 
      2 C          28.0658   23.0270   -0.6982 C.2       0 UNK         0.4864 
      3 O          27.9416   24.2190   -0.4187 O.2       0 UNK        -0.5359 
      4 N          28.9573   22.2260   -0.0989 N.am      1 UNK        -0.4318 
      5 CA         29.9212   22.6121    0.9416 C.3       1 UNK         0.0824 
      6 C6         31.0733   21.5771    1.0369 C.3       12 UNK        -0.0944 
      7 S7         32.1702   21.6716   -0.4174 S.3       12 UNK        -0.2672 
      8 C8         33.6075   22.5601    0.2683 C.3       12 UNK         0.0333 
      9 C9         33.2295   23.9300    0.8172 C.ar      12 UNK        -0.0807 
     10 C10        33.0875   24.1229    2.1955 C.ar      12 UNK        -0.0894 
     11 C11        32.7310   25.3745    2.7042 C.ar      12 UNK        -0.0804 
     12 C12        32.5262   26.4421    1.8250 C.ar      12 UNK        -0.0824 
     13 C13        32.6632   26.2615    0.4465 C.ar      12 UNK        -0.0762 
     14 C14        33.0209   25.0047   -0.0522 C.ar      12 UNK        -0.0782 
     15 C15        32.4451   27.4300   -0.5008 C.3       12 UNK         0.0230 
     16 S16        30.9936   27.1856   -1.5681 S.3       12 UNK        -0.2608 
     17 C17        29.6087   27.3047   -0.3837 C.3       12 UNK        -0.0989 
     18 CA         28.3394   27.8764   -1.0686 C.3       5 UNK         0.0716 
     19 N          27.1061   27.3881   -0.4460 N.am      5 UNK        -0.4135 
     20 C          25.9027   27.4313   -1.0397 C.2       4 UNK         0.5031 
     21 O          25.7199   27.8922   -2.1684 O.2       4 UNK        -0.5229 
     22 CA         24.6908   26.8424   -0.2903 C.3       4 UNK         0.0329 
     23 CB         24.3389   25.4556   -0.8543 C.3       4 UNK        -0.2001 
     24 N          24.8823   26.7262    1.1540 N.am      4 UNK        -0.4303 
     25 C          24.9041   27.7505    2.0169 C.2       3 UNK         0.5044 
     26 O          24.6721   28.9168    1.6988 O.2       3 UNK        -0.5152 
     27 CA         25.2429   27.4241    3.4866 C.3       3 UNK         0.0319 
     28 CB         23.9651   27.4354    4.3417 C.3       3 UNK        -0.2001 
     29 N          25.9465   26.1515    3.7036 N.am      3 UNK        -0.4354 
     30 C          27.1047   25.7730    3.1426 C.2       2 UNK         0.4964 
     31 O          27.7283   26.4671    2.3354 O.2       2 UNK        -0.5047 
     32 CA         27.6171   24.3649    3.4902 C.3       2 UNK         0.0288 
     33 CB         26.4877   23.3701    3.8485 C.3       2 UNK        -0.2113 
     34 N          28.3781   23.8818    2.3446 N.am      2 UNK        -0.4145 
     35 C          29.2315   22.8565    2.3033 C.2       1 UNK         0.5006 
     36 O          29.4656   22.1209    3.2651 O.2       1 UNK        -0.5103 
     37 C          28.3749   29.4170   -1.1246 C.2       5 UNK         0.5055 
     38 O          27.8444   30.0844   -0.2342 O.2       5 UNK        -0.5220 
     39 N          29.0560   29.9562   -2.1450 N.am      6 UNK        -0.4450 
     40 CA         29.2941   31.3933   -2.3218 C.3       6 UNK         0.0367 
     41 CB         29.8814   31.6412   -3.7204 C.3       6 UNK        -0.1929 
     42 C          30.2090   31.9998   -1.2405 C.2       6 UNK         0.5070 
     43 O          30.1068   33.1955   -0.9666 O.2       6 UNK        -0.5237 
     44 N          31.0683   31.1660   -0.6403 N.am      7 UNK        -0.4739 
     45 CA         31.9688   31.5174    0.4583 C.3       7 UNK         0.0276 
     46 CB         33.4288   31.3348    0.0007 C.3       7 UNK        -0.1927 
     47 C          31.6310   30.6976    1.7152 C.2       7 UNK         0.5013 
     48 O          32.5382   30.2499    2.4175 O.2       7 UNK        -0.5193 
     49 N          30.3296   30.5196    1.9949 N.am      8 UNK        -0.4253 
     50 CA         29.7957   29.7765    3.1475 C.3       8 UNK         0.0242 
     51 CB         28.2622   29.7864    3.1010 C.3       8 UNK        -0.2000 
     52 C          30.2783   30.2664    4.5262 C.2       8 UNK         0.4948 
     53 O          30.2767   29.4841    5.4754 O.2       8 UNK        -0.5275 
     54 N          30.7331   31.5251    4.6137 N.am      9 UNK        -0.4246 
     55 CA         31.3986   32.1023    5.7863 C.3       9 UNK         0.0261 
     56 CB         31.7207   33.5793    5.5085 C.3       9 UNK        -0.1959 
     57 C          32.6716   31.3457    6.2185 C.2       9 UNK         0.5033 
     58 O          33.0237   31.3952    7.3980 O.2       9 UNK        -0.5390 
     59 N          33.3176   30.6315    5.2828 N.am      10 UNK        -0.4215 
     60 CA         34.4548   29.7496    5.5507 C.3       10 UNK         0.0240 
     61 CB         35.1180   29.3619    4.2183 C.3       10 UNK        -0.1982 
     62 C          34.0841   28.4827    6.3453 C.2       10 UNK         0.4970 
     63 O          34.9843   27.8631    6.9133 O.2       10 UNK        -0.4916 
     64 N          32.7974   28.1009    6.3652 N.am      11 UNK        -0.4279 
     65 CA         32.3042   26.9036    7.0654 C.3       11 UNK         0.1003 
     66 C          32.1867   27.0766    8.6089 C.2       11 UNK         0.5709 
     67 N          32.3389   28.2745    9.1634 N.am      11 UNK        -0.7358 
     68 O          31.9634   26.0994    9.3197 O.2       11 UNK        -0.4999 
     69 C69        30.9696   26.3776    6.4644 C.3       12 UNK        -0.0954 
     70 S70        30.9097   26.1058    4.6545 S.3       12 UNK        -0.2268 
     71 C71        32.5967   25.5863    4.2035 C.3       12 UNK         0.0203 
     72 H72        27.2515   22.9722   -2.6906 H         1 UNK         0.0888 
     73 H73        27.4429   21.3728   -1.9702 H         1 UNK         0.0888 
     74 H74        26.1326   22.4297   -1.4371 H         1 UNK         0.0888 
     75 H75        28.9962   21.2547   -0.3719 H         1 UNK         0.3017 
     76 H76        30.3563   23.5726    0.6547 H         1 UNK         0.0873 
     77 H77        30.6759   20.5635    1.1139 H         1 UNK         0.0745 
     78 H78        31.6728   21.7233    1.9362 H         1 UNK         0.0745 
     79 H79        34.0708   21.9486    1.0443 H         1 UNK         0.0705 
     80 H80        34.3579   22.6758   -0.5151 H         1 UNK         0.0705 
     81 H81        33.2542   23.2971    2.8735 H         1 UNK         0.1334 
     82 H82        32.2598   27.4136    2.2199 H         1 UNK         0.1417 
     83 H83        33.1253   24.8610   -1.1192 H         1 UNK         0.1562 
     84 H84        33.3295   27.5508   -1.1279 H         1 UNK         0.0748 
     85 H85        32.3314   28.3607    0.0530 H         1 UNK         0.0748 
     86 H86        29.8919   27.8873    0.4956 H         1 UNK         0.0940 
     87 H87        29.4249   26.2955   -0.0143 H         1 UNK         0.0940 
     88 H88        28.3167   27.5080   -2.0971 H         1 UNK         0.0703 
     89 H89        27.1904   27.0212    0.4965 H         1 UNK         0.3081 
     90 H90        23.8437   27.5085   -0.4680 H         1 UNK         0.0719 
     91 H91        25.1465   24.7404   -0.6941 H         1 UNK         0.0809 
     92 H92        23.4361   25.0548   -0.3930 H         1 UNK         0.0809 
     93 H93        24.1571   25.5050   -1.9289 H         1 UNK         0.0809 
     94 H94        25.0809   25.8039    1.5118 H         1 UNK         0.2990 
     95 H95        25.8926   28.2201    3.8479 H         1 UNK         0.0690 
     96 H96        24.1937   27.3173    5.4011 H         1 UNK         0.0788 
     97 H97        23.2796   26.6375    4.0532 H         1 UNK         0.0788 
     98 H98        23.4295   28.3798    4.2331 H         1 UNK         0.0788 
     99 H99        25.5001   25.5036    4.3368 H         1 UNK         0.2993 
    100 H100       28.2960   24.4637    4.3393 H         1 UNK         0.0949 
    101 H101       25.9653   23.6654    4.7590 H         1 UNK         0.0767 
    102 H102       25.7508   23.2914    3.0479 H         1 UNK         0.0767 
    103 H103       26.8792   22.3696    4.0320 H         1 UNK         0.0767 
    104 H104       28.2444   24.4165    1.4881 H         1 UNK         0.3013 
    105 H105       29.4775   29.3387   -2.8252 H         1 UNK         0.3121 
    106 H106       28.3305   31.9037   -2.2583 H         1 UNK         0.0774 
    107 H107       30.8417   31.1406   -3.8508 H         1 UNK         0.0815 
    108 H108       30.0441   32.7064   -3.8914 H         1 UNK         0.0815 
    109 H109       29.2085   31.2894   -4.5026 H         1 UNK         0.0815 
    110 H110       31.0657   30.1982   -0.9295 H         1 UNK         0.2987 
    111 H111       31.8388   32.5651    0.7378 H         1 UNK         0.0949 
    112 H112       33.6519   30.2996   -0.2561 H         1 UNK         0.0806 
    113 H113       33.6474   31.9495   -0.8725 H         1 UNK         0.0806 
    114 H114       34.1259   31.6328    0.7851 H         1 UNK         0.0806 
    115 H115       29.6463   30.9007    1.3534 H         1 UNK         0.3010 
    116 H116       30.1295   28.7413    3.0499 H         1 UNK         0.0829 
    117 H117       27.8870   29.2240    2.2465 H         1 UNK         0.0813 
    118 H118       27.8504   29.3195    3.9958 H         1 UNK         0.0813 
    119 H119       27.8607   30.7986    3.0448 H         1 UNK         0.0813 
    120 H120       30.6845   32.1039    3.7885 H         1 UNK         0.3038 
    121 H121       30.6944   32.0532    6.6195 H         1 UNK         0.0769 
    122 H122       32.4034   33.6924    4.6652 H         1 UNK         0.0811 
    123 H123       32.1936   34.0447    6.3747 H         1 UNK         0.0811 
    124 H124       30.8176   34.1498    5.2907 H         1 UNK         0.0811 
    125 H125       32.9619   30.6252    4.3301 H         1 UNK         0.3204 
    126 H126       35.1814   30.3080    6.1446 H         1 UNK         0.0748 
    127 H127       36.0218   28.7750    4.3877 H         1 UNK         0.0771 
    128 H128       34.4527   28.7607    3.5969 H         1 UNK         0.0771 
    129 H129       35.4062   30.2429    3.6445 H         1 UNK         0.0771 
    130 H130       32.0873   28.6634    5.9085 H         1 UNK         0.2980 
    131 H131       33.0464   26.1155    6.9279 H         1 UNK         0.0545 
    132 H132       32.2650   28.3684   10.1639 H         1 UNK         0.3459 
    133 H133       32.5266   29.0842    8.5914 H         1 UNK         0.3459 
    134 H134       30.7039   25.4282    6.9325 H         1 UNK         0.0616 
    135 H135       30.1575   27.0643    6.7095 H         1 UNK         0.0616 
    136 H136       33.3249   26.3407    4.4930 H         1 UNK         0.0634 
    137 H137       32.8461   24.6776    4.7532 H         1 UNK         0.0634 
@<TRIPOS>BOND
     1    1    2 1    
     2    1   72 1    
     3    1   73 1    
     4    1   74 1    
     5    2    3 2    
     6    2    4 am   BACKBONE|DICT|INTERRES
     7    4    5 1    
     8    4   75 1    
     9    5    6 1    
    10    5   35 1    
    11    5   76 1    
    12    6    7 1    
    13    6   77 1    
    14    6   78 1    
    15    7    8 1    
    16    8    9 1    
    17    8   79 1    
    18    8   80 1    
    19    9   10 ar   
    20    9   14 ar   
    21   10   11 ar   
    22   10   81 1    
    23   11   12 ar   
    24   11   71 1    
    25   12   13 ar   
    26   12   82 1    
    27   13   14 ar   
    28   13   15 1    
    29   14   83 1    
    30   15   16 1    
    31   15   84 1    
    32   15   85 1    
    33   16   17 1    
    34   17   18 1    
    35   17   86 1    
    36   17   87 1    
    37   18   19 1    
    38   18   37 1    
    39   18   88 1    
    40   19   20 am   BACKBONE|DICT|INTERRES
    41   19   89 1    
    42   20   21 2    
    43   20   22 1    
    44   22   23 1    
    45   22   24 1    
    46   22   90 1    
    47   23   91 1    
    48   23   92 1    
    49   23   93 1    
    50   24   25 am   BACKBONE|DICT|INTERRES
    51   24   94 1    
    52   25   26 2    
    53   25   27 1    
    54   27   28 1    
    55   27   29 1    
    56   27   95 1    
    57   28   96 1    
    58   28   97 1    
    59   28   98 1    
    60   29   30 am   BACKBONE|DICT|INTERRES
    61   29   99 1    
    62   30   31 2    
    63   30   32 1    
    64   32   33 1    
    65   32   34 1    
    66   32  100 1    
    67   33  101 1    
    68   33  102 1    
    69   33  103 1    
    70   34   35 am   BACKBONE|DICT|INTERRES
    71   34  104 1    
    72   35   36 2    
    73   37   38 2    
    74   37   39 am   BACKBONE|DICT|INTERRES
    75   39   40 1    
    76   39  105 1    
    77   40   41 1    
    78   40   42 1    
    79   40  106 1    
    80   41  107 1    
    81   41  108 1    
    82   41  109 1    
    83   42   43 2    
    84   42   44 am   BACKBONE|DICT|INTERRES
    85   44   45 1    
    86   44  110 1    
    87   45   46 1    
    88   45   47 1    
    89   45  111 1    
    90   46  112 1    
    91   46  113 1    
    92   46  114 1    
    93   47   48 2    
    94   47   49 am   BACKBONE|DICT|INTERRES
    95   49   50 1    
    96   49  115 1    
    97   50   51 1    
    98   50   52 1    
    99   50  116 1    
   100   51  117 1    
   101   51  118 1    
   102   51  119 1    
   103   52   53 2    
   104   52   54 am   BACKBONE|DICT|INTERRES
   105   54   55 1    
   106   54  120 1    
   107   55   56 1    
   108   55   57 1    
   109   55  121 1    
   110   56  122 1    
   111   56  123 1    
   112   56  124 1    
   113   57   58 2    
   114   57   59 am   BACKBONE|DICT|INTERRES
   115   59   60 1    
   116   59  125 1    
   117   60   61 1    
   118   60   62 1    
   119   60  126 1    
   120   61  127 1    
   121   61  128 1    
   122   61  129 1    
   123   62   63 2    
   124   62   64 am   BACKBONE|DICT|INTERRES
   125   64   65 1    
   126   64  130 1    
   127   65   66 1    
   128   65   69 1    
   129   65  131 1    
   130   66   67 am   BACKBONE|DICT|INTERRES
   131   66   68 2    
   132   67  132 1    
   133   67  133 1    
   134   69   70 1    
   135   69  134 1    
   136   69  135 1    
   137   70   71 1    
   138   71  136 1    
   139   71  137 1    
@<TRIPOS>SUBSTRUCTURE
     1 UNK         1 GROUP             0       ****    0 ROOT    
