@<TRIPOS>MOLECULE
3R136
137   139    1
SMALL
USER_CHARGES


@<TRIPOS>ATOM
      1 CA         24.7888   27.1198    4.0567 C.3       0 UNK        -0.1979 
      2 C          25.1319   25.6680    3.7565 C.2       0 UNK         0.4864 
      3 O          24.5461   24.7669    4.3594 O.2       0 UNK        -0.5359 
      4 N          26.0750   25.4373    2.8365 N.am      1 UNK        -0.4318 
      5 CA         26.4922   24.1075    2.3860 C.3       1 UNK         0.0824 
      6 C6         27.9991   24.0667    2.0248 C.3       12 UNK        -0.0944 
      7 S7         29.0314   23.9573    3.5223 S.3       12 UNK        -0.2672 
      8 C8         30.6755   23.6139    2.8187 C.3       12 UNK         0.0333 
      9 C9         31.3893   24.8998    2.4329 C.ar      12 UNK        -0.0807 
     10 C10        32.0960   25.6195    3.4002 C.ar      12 UNK        -0.0894 
     11 C11        32.7325   26.8188    3.0693 C.ar      12 UNK        -0.0804 
     12 C12        32.6551   27.3002    1.7599 C.ar      12 UNK        -0.0824 
     13 C13        31.9666   26.5800    0.7794 C.ar      12 UNK        -0.0762 
     14 C14        31.3437   25.3741    1.1190 C.ar      12 UNK        -0.0782 
     15 C15        31.9001   27.1118   -0.6443 C.3       12 UNK         0.0230 
     16 S16        30.5407   28.3041   -0.8492 S.3       12 UNK        -0.2608 
     17 C17        29.1117   27.1763   -0.9176 C.3       12 UNK        -0.0989 
     18 CA         27.7572   27.9195   -0.9289 C.3       5 UNK         0.0716 
     19 N          26.6927   27.0430   -1.4034 N.am      5 UNK        -0.4135 
     20 C          26.1241   27.0851   -2.6121 C.2       4 UNK         0.5031 
     21 O          26.4388   27.8776   -3.5023 O.2       4 UNK        -0.5229 
     22 CA         25.0357   26.0280   -2.8524 C.3       4 UNK         0.0329 
     23 CB         24.3407   26.1456   -4.2266 C.3       4 UNK        -0.2001 
     24 N          25.5716   24.6837   -2.6150 N.am      4 UNK        -0.4303 
     25 C          26.4838   24.0122   -3.3384 C.2       3 UNK         0.5044 
     26 O          26.9527   24.4198   -4.4014 O.2       3 UNK        -0.5152 
     27 CA         26.9910   22.6618   -2.7813 C.3       3 UNK         0.0319 
     28 CB         28.5133   22.7095   -2.5568 C.3       3 UNK        -0.2001 
     29 N          26.3552   22.2543   -1.5255 N.am      3 UNK        -0.4354 
     30 C          25.0851   21.8530   -1.3789 C.2       2 UNK         0.4964 
     31 O          24.3223   21.6462   -2.3227 O.2       2 UNK        -0.5047 
     32 CA         24.5590   21.7019    0.0621 C.3       2 UNK         0.0288 
     33 CB         24.4067   20.2149    0.4234 C.3       2 UNK        -0.2113 
     34 N          25.3695   22.3631    1.0962 N.am      2 UNK        -0.4145 
     35 C          25.6272   23.6778    1.1882 C.2       1 UNK         0.5006 
     36 O          25.2645   24.5125    0.3525 O.2       1 UNK        -0.5103 
     37 C          27.3529   28.4199    0.4668 C.2       5 UNK         0.5055 
     38 O          26.6759   27.6948    1.2002 O.2       5 UNK        -0.5220 
     39 N          27.7720   29.6462    0.8025 N.am      6 UNK        -0.4450 
     40 CA         27.3574   30.3908    1.9962 C.3       6 UNK         0.0367 
     41 CB         27.8461   31.8436    1.8671 C.3       6 UNK        -0.1929 
     42 C          27.8126   29.8002    3.3431 C.2       6 UNK         0.5070 
     43 O          27.2256   30.1578    4.3645 O.2       6 UNK        -0.5237 
     44 N          28.8411   28.9373    3.3299 N.am      7 UNK        -0.4739 
     45 CA         29.4758   28.3119    4.5002 C.3       7 UNK         0.0276 
     46 CB         28.5044   27.3396    5.2021 C.3       7 UNK        -0.1927 
     47 C          30.0875   29.3558    5.4579 C.2       7 UNK         0.5013 
     48 O          29.8314   29.3262    6.6637 O.2       7 UNK        -0.5193 
     49 N          30.8571   30.2868    4.8767 N.am      8 UNK        -0.4253 
     50 CA         31.5235   31.4001    5.5575 C.3       8 UNK         0.0242 
     51 CB         32.1206   32.3301    4.4867 C.3       8 UNK        -0.2000 
     52 C          32.6150   30.9511    6.5476 C.2       8 UNK         0.4948 
     53 O          33.1039   29.8234    6.4653 O.2       8 UNK        -0.5275 
     54 N          33.0116   31.8695    7.4414 N.am      9 UNK        -0.4246 
     55 CA         34.0571   31.6652    8.4544 C.3       9 UNK         0.0261 
     56 CB         34.0970   32.8801    9.3959 C.3       9 UNK        -0.1959 
     57 C          35.4580   31.3889    7.8729 C.2       9 UNK         0.5033 
     58 O          36.2566   30.7129    8.5235 O.2       9 UNK        -0.5390 
     59 N          35.7198   31.8962    6.6635 N.am      10 UNK        -0.4215 
     60 CA         36.8746   31.5685    5.8370 C.3       10 UNK         0.0240 
     61 CB         37.8173   32.7814    5.7508 C.3       10 UNK        -0.1982 
     62 C          36.3202   31.1828    4.4633 C.2       10 UNK         0.4970 
     63 O          35.6782   32.0165    3.8205 O.2       10 UNK        -0.4916 
     64 N          36.5272   29.9244    4.0658 N.am      11 UNK        -0.4279 
     65 CA         36.0253   29.3605    2.8055 C.3       11 UNK         0.1003 
     66 C          36.8077   29.8827    1.5701 C.2       11 UNK         0.5709 
     67 N          36.1495   30.0163    0.4265 N.am      11 UNK        -0.7358 
     68 O          38.0112   30.1304    1.6291 O.2       11 UNK        -0.4999 
     69 C69        36.0032   27.8074    2.8345 C.3       12 UNK        -0.0954 
     70 S70        35.2042   27.0898    4.3141 S.3       12 UNK        -0.2268 
     71 C71        33.4677   27.6082    4.1397 C.3       12 UNK         0.0203 
     72 H72        24.8576   27.3089    5.1275 H         1 UNK         0.0888 
     73 H73        25.4641   27.8100    3.5527 H         1 UNK         0.0888 
     74 H74        23.7722   27.3409    3.7333 H         1 UNK         0.0888 
     75 H75        26.4377   26.2230    2.2994 H         1 UNK         0.3017 
     76 H76        26.3143   23.3879    3.1888 H         1 UNK         0.0873 
     77 H77        28.2879   24.9459    1.4483 H         1 UNK         0.0745 
     78 H78        28.2335   23.1981    1.4061 H         1 UNK         0.0745 
     79 H79        30.5887   22.9434    1.9624 H         1 UNK         0.0705 
     80 H80        31.2680   23.0785    3.5621 H         1 UNK         0.0705 
     81 H81        32.1378   25.2525    4.4169 H         1 UNK         0.1334 
     82 H82        33.1302   28.2361    1.5016 H         1 UNK         0.1417 
     83 H83        30.8108   24.8111    0.3651 H         1 UNK         0.1562 
     84 H84        31.7867   26.2943   -1.3583 H         1 UNK         0.0748 
     85 H85        32.8406   27.6044   -0.8959 H         1 UNK         0.0748 
     86 H86        29.1526   26.4680   -0.0915 H         1 UNK         0.0940 
     87 H87        29.2164   26.5834   -1.8283 H         1 UNK         0.0940 
     88 H88        27.8276   28.7867   -1.5896 H         1 UNK         0.0703 
     89 H89        26.3153   26.4153   -0.7026 H         1 UNK         0.3081 
     90 H90        24.2725   26.1901   -2.0893 H         1 UNK         0.0719 
     91 H91        23.8394   27.1093   -4.3233 H         1 UNK         0.0809 
     92 H92        25.0457   26.0677   -5.0545 H         1 UNK         0.0809 
     93 H93        23.5843   25.3716   -4.3556 H         1 UNK         0.0809 
     94 H94        25.3047   24.2800   -1.7241 H         1 UNK         0.2990 
     95 H95        26.7763   21.9011   -3.5347 H         1 UNK         0.0690 
     96 H96        28.8952   21.7482   -2.2121 H         1 UNK         0.0788 
     97 H97        28.7893   23.4660   -1.8209 H         1 UNK         0.0788 
     98 H98        29.0397   22.9489   -3.4819 H         1 UNK         0.0788 
     99 H99        26.9046   22.3755   -0.6885 H         1 UNK         0.2993 
    100 H100       23.5691   22.1627    0.0833 H         1 UNK         0.0949 
    101 H101       25.3705   19.7044    0.4463 H         1 UNK         0.0767 
    102 H102       23.9349   20.0886    1.3982 H         1 UNK         0.0767 
    103 H103       23.7808   19.6965   -0.3047 H         1 UNK         0.0767 
    104 H104       25.7287   21.7572    1.8206 H         1 UNK         0.3013 
    105 H105       28.3623   30.1428    0.1497 H         1 UNK         0.3121 
    106 H106       26.2653   30.3997    2.0106 H         1 UNK         0.0774 
    107 H107       27.5259   32.4421    2.7214 H         1 UNK         0.0815 
    108 H108       28.9344   31.9008    1.8208 H         1 UNK         0.0815 
    109 H109       27.4443   32.3217    0.9736 H         1 UNK         0.0815 
    110 H110       29.2451   28.7096    2.4321 H         1 UNK         0.2987 
    111 H111       30.3059   27.7182    4.1203 H         1 UNK         0.0949 
    112 H112       28.0936   26.6186    4.4973 H         1 UNK         0.0806 
    113 H113       29.0161   26.7742    5.9816 H         1 UNK         0.0806 
    114 H114       27.6702   27.8610    5.6718 H         1 UNK         0.0806 
    115 H115       31.0018   30.2219    3.8807 H         1 UNK         0.3010 
    116 H116       30.7625   31.9472    6.1180 H         1 UNK         0.0829 
    117 H117       31.3518   32.6984    3.8069 H         1 UNK         0.0813 
    118 H118       32.5936   33.2045    4.9353 H         1 UNK         0.0813 
    119 H119       32.8794   31.8214    3.8903 H         1 UNK         0.0813 
    120 H120       32.5604   32.7736    7.4392 H         1 UNK         0.3038 
    121 H121       33.7751   30.7883    9.0413 H         1 UNK         0.0769 
    122 H122       34.8468   32.7437   10.1767 H         1 UNK         0.0811 
    123 H123       33.1389   33.0297    9.8939 H         1 UNK         0.0811 
    124 H124       34.3471   33.7979    8.8620 H         1 UNK         0.0811 
    125 H125       34.9882   32.4092    6.1909 H         1 UNK         0.3204 
    126 H126       37.4245   30.7221    6.2549 H         1 UNK         0.0748 
    127 H127       38.6753   32.5626    5.1139 H         1 UNK         0.0771 
    128 H128       37.3167   33.6578    5.3369 H         1 UNK         0.0771 
    129 H129       38.2022   33.0510    6.7345 H         1 UNK         0.0771 
    130 H130       37.0620   29.2971    4.6475 H         1 UNK         0.2980 
    131 H131       34.9961   29.7043    2.6912 H         1 UNK         0.0545 
    132 H132       36.6489   30.3405   -0.3870 H         1 UNK         0.3459 
    133 H133       35.1652   29.8137    0.3592 H         1 UNK         0.3459 
    134 H134       35.5077   27.4128    1.9463 H         1 UNK         0.0616 
    135 H135       37.0228   27.4187    2.8032 H         1 UNK         0.0616 
    136 H136       33.4079   28.6781    3.9416 H         1 UNK         0.0634 
    137 H137       32.9718   27.4602    5.1002 H         1 UNK         0.0634 
@<TRIPOS>BOND
     1    1    2 1    
     2    1   72 1    
     3    1   73 1    
     4    1   74 1    
     5    2    3 2    
     6    2    4 am   BACKBONE|DICT|INTERRES
     7    4    5 1    
     8    4   75 1    
     9    5    6 1    
    10    5   35 1    
    11    5   76 1    
    12    6    7 1    
    13    6   77 1    
    14    6   78 1    
    15    7    8 1    
    16    8    9 1    
    17    8   79 1    
    18    8   80 1    
    19    9   10 ar   
    20    9   14 ar   
    21   10   11 ar   
    22   10   81 1    
    23   11   12 ar   
    24   11   71 1    
    25   12   13 ar   
    26   12   82 1    
    27   13   14 ar   
    28   13   15 1    
    29   14   83 1    
    30   15   16 1    
    31   15   84 1    
    32   15   85 1    
    33   16   17 1    
    34   17   18 1    
    35   17   86 1    
    36   17   87 1    
    37   18   19 1    
    38   18   37 1    
    39   18   88 1    
    40   19   20 am   BACKBONE|DICT|INTERRES
    41   19   89 1    
    42   20   21 2    
    43   20   22 1    
    44   22   23 1    
    45   22   24 1    
    46   22   90 1    
    47   23   91 1    
    48   23   92 1    
    49   23   93 1    
    50   24   25 am   BACKBONE|DICT|INTERRES
    51   24   94 1    
    52   25   26 2    
    53   25   27 1    
    54   27   28 1    
    55   27   29 1    
    56   27   95 1    
    57   28   96 1    
    58   28   97 1    
    59   28   98 1    
    60   29   30 am   BACKBONE|DICT|INTERRES
    61   29   99 1    
    62   30   31 2    
    63   30   32 1    
    64   32   33 1    
    65   32   34 1    
    66   32  100 1    
    67   33  101 1    
    68   33  102 1    
    69   33  103 1    
    70   34   35 am   BACKBONE|DICT|INTERRES
    71   34  104 1    
    72   35   36 2    
    73   37   38 2    
    74   37   39 am   BACKBONE|DICT|INTERRES
    75   39   40 1    
    76   39  105 1    
    77   40   41 1    
    78   40   42 1    
    79   40  106 1    
    80   41  107 1    
    81   41  108 1    
    82   41  109 1    
    83   42   43 2    
    84   42   44 am   BACKBONE|DICT|INTERRES
    85   44   45 1    
    86   44  110 1    
    87   45   46 1    
    88   45   47 1    
    89   45  111 1    
    90   46  112 1    
    91   46  113 1    
    92   46  114 1    
    93   47   48 2    
    94   47   49 am   BACKBONE|DICT|INTERRES
    95   49   50 1    
    96   49  115 1    
    97   50   51 1    
    98   50   52 1    
    99   50  116 1    
   100   51  117 1    
   101   51  118 1    
   102   51  119 1    
   103   52   53 2    
   104   52   54 am   BACKBONE|DICT|INTERRES
   105   54   55 1    
   106   54  120 1    
   107   55   56 1    
   108   55   57 1    
   109   55  121 1    
   110   56  122 1    
   111   56  123 1    
   112   56  124 1    
   113   57   58 2    
   114   57   59 am   BACKBONE|DICT|INTERRES
   115   59   60 1    
   116   59  125 1    
   117   60   61 1    
   118   60   62 1    
   119   60  126 1    
   120   61  127 1    
   121   61  128 1    
   122   61  129 1    
   123   62   63 2    
   124   62   64 am   BACKBONE|DICT|INTERRES
   125   64   65 1    
   126   64  130 1    
   127   65   66 1    
   128   65   69 1    
   129   65  131 1    
   130   66   67 am   BACKBONE|DICT|INTERRES
   131   66   68 2    
   132   67  132 1    
   133   67  133 1    
   134   69   70 1    
   135   69  134 1    
   136   69  135 1    
   137   70   71 1    
   138   71  136 1    
   139   71  137 1    
@<TRIPOS>SUBSTRUCTURE
     1 UNK         1 GROUP             0       ****    0 ROOT    
