@<TRIPOS>MOLECULE
3R136
137   139    1
SMALL
USER_CHARGES


@<TRIPOS>ATOM
      1 CA         31.6229   20.6806    0.3270 C.3       0 UNK        -0.1979 
      2 C          30.6777   21.0238   -0.8153 C.2       0 UNK         0.4864 
      3 O          30.0850   20.1247   -1.4140 O.2       0 UNK        -0.5359 
      4 N          30.5406   22.3192   -1.1226 N.am      1 UNK        -0.4318 
      5 CA         29.5999   22.8629   -2.1060 C.3       1 UNK         0.0824 
      6 C6         30.0098   24.2928   -2.5526 C.3       12 UNK        -0.0944 
      7 S7         29.9348   25.5746   -1.2501 S.3       12 UNK        -0.2672 
      8 C8         31.5761   25.4224   -0.4675 C.3       12 UNK         0.0333 
      9 C9         31.5108   25.1616    1.0365 C.ar      12 UNK        -0.0807 
     10 C10        32.4685   25.7444    1.8705 C.ar      12 UNK        -0.0894 
     11 C11        32.4435   25.5246    3.2507 C.ar      12 UNK        -0.0804 
     12 C12        31.4532   24.7090    3.8047 C.ar      12 UNK        -0.0824 
     13 C13        30.4881   24.1178    2.9844 C.ar      12 UNK        -0.0762 
     14 C14        30.5273   24.3419    1.6054 C.ar      12 UNK        -0.0782 
     15 C15        29.3884   23.2514    3.5824 C.3       12 UNK         0.0230 
     16 S16        27.7349   23.9782    3.3348 S.3       12 UNK        -0.2608 
     17 C17        27.8241   25.4909    4.3532 C.3       12 UNK        -0.0989 
     18 CA         28.2732   26.7401    3.5533 C.3       5 UNK         0.0716 
     19 N          27.4598   26.9732    2.3591 N.am      5 UNK        -0.4135 
     20 C          27.7295   27.8803    1.4136 C.2       4 UNK         0.5031 
     21 O          28.7439   28.5837    1.4346 O.2       4 UNK        -0.5229 
     22 CA         26.6944   28.0769    0.2835 C.3       4 UNK         0.0329 
     23 CB         27.3446   28.5678   -1.0228 C.3       4 UNK        -0.2001 
     24 N          25.8496   26.9133   -0.0154 N.am      4 UNK        -0.4303 
     25 C          24.8179   26.4775    0.7162 C.2       3 UNK         0.5044 
     26 O          24.5501   26.9246    1.8312 O.2       3 UNK        -0.5152 
     27 CA         23.9156   25.3762    0.1255 C.3       3 UNK         0.0319 
     28 CB         22.8372   25.9958   -0.7848 C.3       3 UNK        -0.2001 
     29 N          24.5910   24.2573   -0.5499 N.am      3 UNK        -0.4354 
     30 C          25.3395   24.2638   -1.6614 C.2       2 UNK         0.4964 
     31 O          25.6712   25.2807   -2.2749 O.2       2 UNK        -0.5047 
     32 CA         25.7545   22.8879   -2.2065 C.3       2 UNK         0.0288 
     33 CB         24.9482   22.5411   -3.4692 C.3       2 UNK        -0.2113 
     34 N          27.1818   22.8580   -2.5208 N.am      2 UNK        -0.4145 
     35 C          28.1440   22.7961   -1.5921 C.2       1 UNK         0.5006 
     36 O          27.9133   22.7014   -0.3828 O.2       1 UNK        -0.5103 
     37 C          28.2580   27.9989    4.4410 C.2       5 UNK         0.5055 
     38 O          27.1770   28.4566    4.8177 O.2       5 UNK        -0.5220 
     39 N          29.4493   28.5484    4.7149 N.am      6 UNK        -0.4450 
     40 CA         29.6977   29.8224    5.4054 C.3       6 UNK         0.0367 
     41 CB         29.1510   29.8068    6.8495 C.3       6 UNK        -0.1929 
     42 C          29.2563   31.0727    4.6131 C.2       6 UNK         0.5070 
     43 O          29.1906   32.1568    5.1951 O.2       6 UNK        -0.5237 
     44 N          28.9914   30.9200    3.3079 N.am      7 UNK        -0.4739 
     45 CA         28.7266   32.0144    2.3705 C.3       7 UNK         0.0276 
     46 CB         27.3271   31.8489    1.7564 C.3       7 UNK        -0.1927 
     47 C          29.8027   32.0585    1.2762 C.2       7 UNK         0.5013 
     48 O          30.2331   33.1493    0.9008 O.2       7 UNK        -0.5193 
     49 N          30.2383   30.8817    0.8004 N.am      8 UNK        -0.4253 
     50 CA         31.3118   30.7141   -0.1837 C.3       8 UNK         0.0242 
     51 CB         31.3104   29.2568   -0.6739 C.3       8 UNK        -0.2000 
     52 C          32.7072   31.0907    0.3486 C.2       8 UNK         0.4948 
     53 O          33.5788   31.4437   -0.4473 O.2       8 UNK        -0.5275 
     54 N          32.8971   31.0064    1.6693 N.am      9 UNK        -0.4246 
     55 CA         34.1206   31.3282    2.3950 C.3       9 UNK         0.0261 
     56 CB         35.1370   30.1777    2.2494 C.3       9 UNK        -0.1959 
     57 C          33.7521   31.5670    3.8643 C.2       9 UNK         0.5033 
     58 O          32.6187   31.2861    4.2654 O.2       9 UNK        -0.5390 
     59 N          34.7161   32.0510    4.6568 N.am      10 UNK        -0.4215 
     60 CA         34.5928   32.2461    6.1051 C.3       10 UNK         0.0240 
     61 CB         35.6274   33.2935    6.5591 C.3       10 UNK        -0.1982 
     62 C          34.7313   30.9082    6.8600 C.2       10 UNK         0.4970 
     63 O          35.7151   30.6961    7.5711 O.2       10 UNK        -0.4916 
     64 N          33.7568   30.0164    6.6519 N.am      11 UNK        -0.4279 
     65 CA         33.7263   28.6395    7.1764 C.3       11 UNK         0.1003 
     66 C          33.5062   28.5223    8.7129 C.2       11 UNK         0.5709 
     67 N          33.0897   29.5737    9.4088 N.am      11 UNK        -0.7358 
     68 O          33.7225   27.4558    9.2835 O.2       11 UNK        -0.4999 
     69 C69        32.7087   27.7520    6.4088 C.3       12 UNK        -0.0954 
     70 S70        32.9089   27.8575    4.5964 S.3       12 UNK        -0.2268 
     71 C71        33.4762   26.1944    4.1388 C.3       12 UNK         0.0203 
     72 H72        32.4221   20.0307   -0.0283 H         1 UNK         0.0888 
     73 H73        32.0772   21.5706    0.7630 H         1 UNK         0.0888 
     74 H74        31.0821   20.1576    1.1154 H         1 UNK         0.0888 
     75 H75        31.0313   23.0094   -0.5751 H         1 UNK         0.3017 
     76 H76        29.6530   22.2199   -2.9877 H         1 UNK         0.0873 
     77 H77        31.0139   24.2758   -2.9792 H         1 UNK         0.0745 
     78 H78        29.3642   24.6228   -3.3684 H         1 UNK         0.0745 
     79 H79        32.1222   26.3453   -0.6660 H         1 UNK         0.0705 
     80 H80        32.1575   24.6280   -0.9352 H         1 UNK         0.0705 
     81 H81        33.2330   26.3827    1.4483 H         1 UNK         0.1334 
     82 H82        31.4274   24.5485    4.8739 H         1 UNK         0.1417 
     83 H83        29.7619   23.8946    0.9878 H         1 UNK         0.1562 
     84 H84        29.5537   23.0817    4.6474 H         1 UNK         0.0748 
     85 H85        29.4142   22.2697    3.1070 H         1 UNK         0.0748 
     86 H86        28.4952   25.3153    5.1962 H         1 UNK         0.0940 
     87 H87        26.8346   25.6526    4.7860 H         1 UNK         0.0940 
     88 H88        29.2957   26.5778    3.2091 H         1 UNK         0.0703 
     89 H89        26.5658   26.5021    2.3222 H         1 UNK         0.3081 
     90 H90        26.0315   28.8724    0.6293 H         1 UNK         0.0719 
     91 H91        28.0351   27.8287   -1.4279 H         1 UNK         0.0809 
     92 H92        26.5939   28.7759   -1.7852 H         1 UNK         0.0809 
     93 H93        27.9050   29.4905   -0.8679 H         1 UNK         0.0809 
     94 H94        25.9960   26.4576   -0.9140 H         1 UNK         0.2990 
     95 H95        23.3977   24.9244    0.9733 H         1 UNK         0.0690 
     96 H96        22.1221   25.2447   -1.1205 H         1 UNK         0.0788 
     97 H97        23.2701   26.4651   -1.6689 H         1 UNK         0.0788 
     98 H98        22.2732   26.7643   -0.2541 H         1 UNK         0.0788 
     99 H99        24.4282   23.3585   -0.1164 H         1 UNK         0.2993 
    100 H100       25.5509   22.1244   -1.4519 H         1 UNK         0.0949 
    101 H101       25.1191   23.2626   -4.2695 H         1 UNK         0.0767 
    102 H102       25.2078   21.5519   -3.8472 H         1 UNK         0.0767 
    103 H103       23.8778   22.5362   -3.2587 H         1 UNK         0.0767 
    104 H104       27.4346   22.9782   -3.4908 H         1 UNK         0.3013 
    105 H105       30.2773   28.0998    4.3433 H         1 UNK         0.3121 
    106 H106       30.7805   29.9063    5.4798 H         1 UNK         0.0774 
    107 H107       29.5136   30.6682    7.4116 H         1 UNK         0.0815 
    108 H108       28.0618   29.8443    6.8723 H         1 UNK         0.0815 
    109 H109       29.4684   28.9145    7.3884 H         1 UNK         0.0815 
    110 H110       29.0395   29.9890    2.9098 H         1 UNK         0.2987 
    111 H111       28.7556   32.9756    2.8885 H         1 UNK         0.0949 
    112 H112       27.0943   32.6815    1.0913 H         1 UNK         0.0806 
    113 H113       27.2451   30.9342    1.1714 H         1 UNK         0.0806 
    114 H114       26.5574   31.8239    2.5278 H         1 UNK         0.0806 
    115 H115       29.7758   30.0264    1.1039 H         1 UNK         0.3010 
    116 H116       31.0974   31.3656   -1.0334 H         1 UNK         0.0829 
    117 H117       30.3690   28.9993   -1.1585 H         1 UNK         0.0813 
    118 H118       32.1053   29.0834   -1.4005 H         1 UNK         0.0813 
    119 H119       31.4600   28.5586    0.1508 H         1 UNK         0.0813 
    120 H120       32.1201   30.7652    2.2730 H         1 UNK         0.3038 
    121 H121       34.5423   32.2518    1.9932 H         1 UNK         0.0769 
    122 H122       36.0595   30.3876    2.7914 H         1 UNK         0.0811 
    123 H123       35.4103   30.0180    1.2063 H         1 UNK         0.0811 
    124 H124       34.7383   29.2388    2.6343 H         1 UNK         0.0811 
    125 H125       35.6269   32.2284    4.2577 H         1 UNK         0.3204 
    126 H126       33.6001   32.6450    6.3259 H         1 UNK         0.0748 
    127 H127       35.5526   33.4762    7.6320 H         1 UNK         0.0771 
    128 H128       36.6492   32.9719    6.3531 H         1 UNK         0.0771 
    129 H129       35.4694   34.2489    6.0583 H         1 UNK         0.0771 
    130 H130       33.0328   30.2607    5.9853 H         1 UNK         0.2980 
    131 H131       34.7165   28.2188    6.9912 H         1 UNK         0.0545 
    132 H132       32.9550   29.4856   10.4036 H         1 UNK         0.3459 
    133 H133       32.9138   30.4526    8.9502 H         1 UNK         0.3459 
    134 H134       31.6894   28.0507    6.6525 H         1 UNK         0.0616 
    135 H135       32.7917   26.7126    6.7295 H         1 UNK         0.0616 
    136 H136       33.6801   25.5840    5.0189 H         1 UNK         0.0634 
    137 H137       34.4246   26.2828    3.6068 H         1 UNK         0.0634 
@<TRIPOS>BOND
     1    1    2 1    
     2    1   72 1    
     3    1   73 1    
     4    1   74 1    
     5    2    3 2    
     6    2    4 am   BACKBONE|DICT|INTERRES
     7    4    5 1    
     8    4   75 1    
     9    5    6 1    
    10    5   35 1    
    11    5   76 1    
    12    6    7 1    
    13    6   77 1    
    14    6   78 1    
    15    7    8 1    
    16    8    9 1    
    17    8   79 1    
    18    8   80 1    
    19    9   10 ar   
    20    9   14 ar   
    21   10   11 ar   
    22   10   81 1    
    23   11   12 ar   
    24   11   71 1    
    25   12   13 ar   
    26   12   82 1    
    27   13   14 ar   
    28   13   15 1    
    29   14   83 1    
    30   15   16 1    
    31   15   84 1    
    32   15   85 1    
    33   16   17 1    
    34   17   18 1    
    35   17   86 1    
    36   17   87 1    
    37   18   19 1    
    38   18   37 1    
    39   18   88 1    
    40   19   20 am   BACKBONE|DICT|INTERRES
    41   19   89 1    
    42   20   21 2    
    43   20   22 1    
    44   22   23 1    
    45   22   24 1    
    46   22   90 1    
    47   23   91 1    
    48   23   92 1    
    49   23   93 1    
    50   24   25 am   BACKBONE|DICT|INTERRES
    51   24   94 1    
    52   25   26 2    
    53   25   27 1    
    54   27   28 1    
    55   27   29 1    
    56   27   95 1    
    57   28   96 1    
    58   28   97 1    
    59   28   98 1    
    60   29   30 am   BACKBONE|DICT|INTERRES
    61   29   99 1    
    62   30   31 2    
    63   30   32 1    
    64   32   33 1    
    65   32   34 1    
    66   32  100 1    
    67   33  101 1    
    68   33  102 1    
    69   33  103 1    
    70   34   35 am   BACKBONE|DICT|INTERRES
    71   34  104 1    
    72   35   36 2    
    73   37   38 2    
    74   37   39 am   BACKBONE|DICT|INTERRES
    75   39   40 1    
    76   39  105 1    
    77   40   41 1    
    78   40   42 1    
    79   40  106 1    
    80   41  107 1    
    81   41  108 1    
    82   41  109 1    
    83   42   43 2    
    84   42   44 am   BACKBONE|DICT|INTERRES
    85   44   45 1    
    86   44  110 1    
    87   45   46 1    
    88   45   47 1    
    89   45  111 1    
    90   46  112 1    
    91   46  113 1    
    92   46  114 1    
    93   47   48 2    
    94   47   49 am   BACKBONE|DICT|INTERRES
    95   49   50 1    
    96   49  115 1    
    97   50   51 1    
    98   50   52 1    
    99   50  116 1    
   100   51  117 1    
   101   51  118 1    
   102   51  119 1    
   103   52   53 2    
   104   52   54 am   BACKBONE|DICT|INTERRES
   105   54   55 1    
   106   54  120 1    
   107   55   56 1    
   108   55   57 1    
   109   55  121 1    
   110   56  122 1    
   111   56  123 1    
   112   56  124 1    
   113   57   58 2    
   114   57   59 am   BACKBONE|DICT|INTERRES
   115   59   60 1    
   116   59  125 1    
   117   60   61 1    
   118   60   62 1    
   119   60  126 1    
   120   61  127 1    
   121   61  128 1    
   122   61  129 1    
   123   62   63 2    
   124   62   64 am   BACKBONE|DICT|INTERRES
   125   64   65 1    
   126   64  130 1    
   127   65   66 1    
   128   65   69 1    
   129   65  131 1    
   130   66   67 am   BACKBONE|DICT|INTERRES
   131   66   68 2    
   132   67  132 1    
   133   67  133 1    
   134   69   70 1    
   135   69  134 1    
   136   69  135 1    
   137   70   71 1    
   138   71  136 1    
   139   71  137 1    
@<TRIPOS>SUBSTRUCTURE
     1 UNK         1 GROUP             0       ****    0 ROOT    
