@<TRIPOS>MOLECULE
3R136
137   139    1
SMALL
USER_CHARGES


@<TRIPOS>ATOM
      1 CA         24.9849   20.9098    2.8448 C.3       0 UNK        -0.1979 
      2 C          25.7051   21.9312    1.9780 C.2       0 UNK         0.4864 
      3 O          25.2454   22.2256    0.8738 O.2       0 UNK        -0.5359 
      4 N          26.8220   22.4835    2.4765 N.am      1 UNK        -0.4318 
      5 CA         27.6933   23.4507    1.7906 C.3       1 UNK         0.0824 
      6 C6         28.8788   23.8963    2.6786 C.3       12 UNK        -0.0944 
      7 S7         29.9478   22.5163    3.2068 S.3       12 UNK        -0.2672 
      8 C8         31.3325   22.6165    2.0219 C.3       12 UNK         0.0333 
      9 C9         32.0285   23.9741    2.0159 C.ar      12 UNK        -0.0807 
     10 C10        32.5372   24.5231    3.1986 C.ar      12 UNK        -0.0894 
     11 C11        33.1610   25.7741    3.1879 C.ar      12 UNK        -0.0804 
     12 C12        33.2917   26.4686    1.9832 C.ar      12 UNK        -0.0824 
     13 C13        32.7935   25.9302    0.7953 C.ar      12 UNK        -0.0762 
     14 C14        32.1628   24.6826    0.8169 C.ar      12 UNK        -0.0782 
     15 C15        32.9406   26.7013   -0.5080 C.3       12 UNK         0.0230 
     16 S16        31.6863   28.0116   -0.6537 S.3       12 UNK        -0.2608 
     17 C17        30.1588   27.0199   -0.7688 C.3       12 UNK        -0.0989 
     18 CA         28.9783   27.7746   -1.4349 C.3       5 UNK         0.0716 
     19 N          27.9930   26.8114   -1.9208 N.am      5 UNK        -0.4135 
     20 C          27.6791   26.5777   -3.1977 C.2       4 UNK         0.5031 
     21 O          28.1591   27.2020   -4.1453 O.2       4 UNK        -0.5229 
     22 CA         26.6837   25.4430   -3.4879 C.3       4 UNK         0.0329 
     23 CB         27.4408   24.1263   -3.7315 C.3       4 UNK        -0.2001 
     24 N          25.7042   25.2339   -2.4144 N.am      4 UNK        -0.4303 
     25 C          24.3750   25.2058   -2.5973 C.2       3 UNK         0.5044 
     26 O          23.8288   25.4275   -3.6792 O.2       3 UNK        -0.5152 
     27 CA         23.4864   24.8417   -1.3916 C.3       3 UNK         0.0319 
     28 CB         23.0367   23.3746   -1.4854 C.3       3 UNK        -0.2001 
     29 N          24.1380   25.0596   -0.0995 N.am      3 UNK        -0.4354 
     30 C          24.3128   26.2664    0.4602 C.2       2 UNK         0.4964 
     31 O          23.8565   27.3050   -0.0186 O.2       2 UNK        -0.5047 
     32 CA         25.1255   26.3427    1.7693 C.3       2 UNK         0.0288 
     33 CB         24.1953   26.5902    2.9683 C.3       2 UNK        -0.2113 
     34 N          25.9590   25.1704    2.0547 N.am      2 UNK        -0.4145 
     35 C          26.9469   24.6986    1.2794 C.2       1 UNK         0.5006 
     36 O          27.2542   25.1816    0.1892 O.2       1 UNK        -0.5103 
     37 C          28.2940   28.7417   -0.4500 C.2       5 UNK         0.5055 
     38 O          27.1357   28.5405   -0.0791 O.2       5 UNK        -0.5220 
     39 N          29.0395   29.7652   -0.0137 N.am      6 UNK        -0.4450 
     40 CA         28.6501   30.6659    1.0748 C.3       6 UNK         0.0367 
     41 CB         29.6039   31.8708    1.1099 C.3       6 UNK        -0.1929 
     42 C          28.6329   29.9618    2.4438 C.2       6 UNK         0.5070 
     43 O          27.8292   30.3344    3.2993 O.2       6 UNK        -0.5237 
     44 N          29.5169   28.9644    2.6187 N.am      7 UNK        -0.4739 
     45 CA         29.7365   28.1130    3.7983 C.3       7 UNK         0.0276 
     46 CB         28.4700   27.3107    4.1537 C.3       7 UNK        -0.1927 
     47 C          30.2859   28.8699    5.0212 C.2       7 UNK         0.5013 
     48 O          31.3205   28.4791    5.5614 O.2       7 UNK        -0.5193 
     49 N          29.6056   29.9488    5.4225 N.am      8 UNK        -0.4253 
     50 CA         30.0661   30.9067    6.4248 C.3       8 UNK         0.0242 
     51 CB         28.8843   31.7888    6.8567 C.3       8 UNK        -0.2000 
     52 C          31.2002   31.7693    5.8517 C.2       8 UNK         0.4948 
     53 O          31.1790   32.0876    4.6597 O.2       8 UNK        -0.5275 
     54 N          32.1720   32.1234    6.7039 N.am      9 UNK        -0.4246 
     55 CA         33.3696   32.9431    6.4450 C.3       9 UNK         0.0261 
     56 CB         32.9856   34.3756    6.0256 C.3       9 UNK        -0.1959 
     57 C          34.3911   32.3418    5.4575 C.2       9 UNK         0.5033 
     58 O          35.5910   32.5314    5.6580 O.2       9 UNK        -0.5390 
     59 N          33.9207   31.6164    4.4354 N.am      10 UNK        -0.4215 
     60 CA         34.7018   30.9858    3.3657 C.3       10 UNK         0.0240 
     61 CB         33.7336   30.2939    2.3913 C.3       10 UNK        -0.1982 
     62 C          35.7903   30.0042    3.8430 C.2       10 UNK         0.4970 
     63 O          36.8185   29.8859    3.1755 O.2       10 UNK        -0.4916 
     64 N          35.5554   29.3433    4.9828 N.am      11 UNK        -0.4279 
     65 CA         36.5182   28.4675    5.6721 C.3       11 UNK         0.1003 
     66 C          37.2439   29.1680    6.8598 C.2       11 UNK         0.5709 
     67 N          37.0905   30.4696    7.0754 N.am      11 UNK        -0.7358 
     68 O          37.9848   28.5218    7.5973 O.2       11 UNK        -0.4999 
     69 C69        35.8586   27.1260    6.0957 C.3       12 UNK        -0.0954 
     70 S70        35.4671   26.0763    4.6579 S.3       12 UNK        -0.2268 
     71 C71        33.6891   26.3879    4.4727 C.3       12 UNK         0.0203 
     72 H72        23.9694   21.2453    3.0536 H         1 UNK         0.0888 
     73 H73        24.9281   19.9533    2.3262 H         1 UNK         0.0888 
     74 H74        25.4928   20.7507    3.7959 H         1 UNK         0.0888 
     75 H75        27.1529   22.1836    3.3831 H         1 UNK         0.3017 
     76 H76        28.0961   22.9453    0.9104 H         1 UNK         0.0873 
     77 H77        28.5091   24.3771    3.5856 H         1 UNK         0.0745 
     78 H78        29.4798   24.6512    2.1691 H         1 UNK         0.0745 
     79 H79        30.9542   22.3692    1.0288 H         1 UNK         0.0705 
     80 H80        32.0645   21.8474    2.2718 H         1 UNK         0.0705 
     81 H81        32.4366   23.9800    4.1285 H         1 UNK         0.1334 
     82 H82        33.7850   27.4295    1.9692 H         1 UNK         0.1417 
     83 H83        31.7746   24.2646   -0.1019 H         1 UNK         0.1562 
     84 H84        32.8743   26.0316   -1.3669 H         1 UNK         0.0748 
     85 H85        33.9316   27.1555   -0.5535 H         1 UNK         0.0748 
     86 H86        29.8876   26.6460    0.2214 H         1 UNK         0.0940 
     87 H87        30.3963   26.1341   -1.3607 H         1 UNK         0.0940 
     88 H88        29.3545   28.3701   -2.2694 H         1 UNK         0.0703 
     89 H89        27.5451   26.2740   -1.1814 H         1 UNK         0.3081 
     90 H90        26.1763   25.7130   -4.4163 H         1 UNK         0.0719 
     91 H91        28.1801   24.2396   -4.5258 H         1 UNK         0.0809 
     92 H92        27.9691   23.7936   -2.8369 H         1 UNK         0.0809 
     93 H93        26.7608   23.3299   -4.0344 H         1 UNK         0.0809 
     94 H94        26.0696   25.0621   -1.4844 H         1 UNK         0.2990 
     95 H95        22.5945   25.4703   -1.4396 H         1 UNK         0.0690 
     96 H96        22.3744   23.1078   -0.6616 H         1 UNK         0.0788 
     97 H97        23.8864   22.6908   -1.4675 H         1 UNK         0.0788 
     98 H98        22.4912   23.1917   -2.4122 H         1 UNK         0.0788 
     99 H99        24.5331   24.2420    0.3523 H         1 UNK         0.2993 
    100 H100       25.7945   27.2000    1.6783 H         1 UNK         0.0949 
    101 H101       23.5808   27.4777    2.8098 H         1 UNK         0.0767 
    102 H102       23.5192   25.7504    3.1341 H         1 UNK         0.0767 
    103 H103       24.7633   26.7537    3.8845 H         1 UNK         0.0767 
    104 H104       25.7638   24.6815    2.9161 H         1 UNK         0.3013 
    105 H105       29.9840   29.8511   -0.3657 H         1 UNK         0.3121 
    106 H106       27.6399   31.0302    0.8750 H         1 UNK         0.0774 
    107 H107       29.3263   32.5633    1.9062 H         1 UNK         0.0815 
    108 H108       30.6350   31.5667    1.2937 H         1 UNK         0.0815 
    109 H109       29.5775   32.4274    0.1731 H         1 UNK         0.0815 
    110 H110       30.1432   28.7810    1.8475 H         1 UNK         0.2987 
    111 H111       30.5043   27.3946    3.5039 H         1 UNK         0.0949 
    112 H112       28.6830   26.5721    4.9273 H         1 UNK         0.0806 
    113 H113       28.0880   26.7781    3.2843 H         1 UNK         0.0806 
    114 H114       27.6685   27.9488    4.5268 H         1 UNK         0.0806 
    115 H115       28.8120   30.2245    4.8478 H         1 UNK         0.3010 
    116 H116       30.4334   30.3538    7.2921 H         1 UNK         0.0829 
    117 H117       28.4778   32.3554    6.0174 H         1 UNK         0.0813 
    118 H118       28.0766   31.1907    7.2790 H         1 UNK         0.0813 
    119 H119       29.1889   32.5071    7.6190 H         1 UNK         0.0813 
    120 H120       32.0987   31.7825    7.6532 H         1 UNK         0.3038 
    121 H121       33.8838   33.0143    7.4050 H         1 UNK         0.0769 
    122 H122       33.8720   35.0052    5.9363 H         1 UNK         0.0811 
    123 H123       32.3305   34.8422    6.7613 H         1 UNK         0.0811 
    124 H124       32.4764   34.3975    5.0616 H         1 UNK         0.0811 
    125 H125       32.9065   31.5865    4.3438 H         1 UNK         0.3204 
    126 H126       35.2113   31.7876    2.8277 H         1 UNK         0.0748 
    127 H127       34.2735   29.8011    1.5814 H         1 UNK         0.0771 
    128 H128       33.1266   29.5403    2.8947 H         1 UNK         0.0771 
    129 H129       33.0551   31.0131    1.9324 H         1 UNK         0.0771 
    130 H130       34.6899   29.5190    5.4707 H         1 UNK         0.2980 
    131 H131       37.3263   28.2177    4.9824 H         1 UNK         0.0545 
    132 H132       36.5344   31.0535    6.4587 H         1 UNK         0.3459 
    133 H133       37.5808   30.8928    7.8469 H         1 UNK         0.3459 
    134 H134       36.5307   26.5412    6.7260 H         1 UNK         0.0616 
    135 H135       34.9616   27.3017    6.6921 H         1 UNK         0.0616 
    136 H136       33.5109   27.4632    4.4605 H         1 UNK         0.0634 
    137 H137       33.1544   25.9930    5.3380 H         1 UNK         0.0634 
@<TRIPOS>BOND
     1    1    2 1    
     2    1   72 1    
     3    1   73 1    
     4    1   74 1    
     5    2    3 2    
     6    2    4 am   BACKBONE|DICT|INTERRES
     7    4    5 1    
     8    4   75 1    
     9    5    6 1    
    10    5   35 1    
    11    5   76 1    
    12    6    7 1    
    13    6   77 1    
    14    6   78 1    
    15    7    8 1    
    16    8    9 1    
    17    8   79 1    
    18    8   80 1    
    19    9   10 ar   
    20    9   14 ar   
    21   10   11 ar   
    22   10   81 1    
    23   11   12 ar   
    24   11   71 1    
    25   12   13 ar   
    26   12   82 1    
    27   13   14 ar   
    28   13   15 1    
    29   14   83 1    
    30   15   16 1    
    31   15   84 1    
    32   15   85 1    
    33   16   17 1    
    34   17   18 1    
    35   17   86 1    
    36   17   87 1    
    37   18   19 1    
    38   18   37 1    
    39   18   88 1    
    40   19   20 am   BACKBONE|DICT|INTERRES
    41   19   89 1    
    42   20   21 2    
    43   20   22 1    
    44   22   23 1    
    45   22   24 1    
    46   22   90 1    
    47   23   91 1    
    48   23   92 1    
    49   23   93 1    
    50   24   25 am   BACKBONE|DICT|INTERRES
    51   24   94 1    
    52   25   26 2    
    53   25   27 1    
    54   27   28 1    
    55   27   29 1    
    56   27   95 1    
    57   28   96 1    
    58   28   97 1    
    59   28   98 1    
    60   29   30 am   BACKBONE|DICT|INTERRES
    61   29   99 1    
    62   30   31 2    
    63   30   32 1    
    64   32   33 1    
    65   32   34 1    
    66   32  100 1    
    67   33  101 1    
    68   33  102 1    
    69   33  103 1    
    70   34   35 am   BACKBONE|DICT|INTERRES
    71   34  104 1    
    72   35   36 2    
    73   37   38 2    
    74   37   39 am   BACKBONE|DICT|INTERRES
    75   39   40 1    
    76   39  105 1    
    77   40   41 1    
    78   40   42 1    
    79   40  106 1    
    80   41  107 1    
    81   41  108 1    
    82   41  109 1    
    83   42   43 2    
    84   42   44 am   BACKBONE|DICT|INTERRES
    85   44   45 1    
    86   44  110 1    
    87   45   46 1    
    88   45   47 1    
    89   45  111 1    
    90   46  112 1    
    91   46  113 1    
    92   46  114 1    
    93   47   48 2    
    94   47   49 am   BACKBONE|DICT|INTERRES
    95   49   50 1    
    96   49  115 1    
    97   50   51 1    
    98   50   52 1    
    99   50  116 1    
   100   51  117 1    
   101   51  118 1    
   102   51  119 1    
   103   52   53 2    
   104   52   54 am   BACKBONE|DICT|INTERRES
   105   54   55 1    
   106   54  120 1    
   107   55   56 1    
   108   55   57 1    
   109   55  121 1    
   110   56  122 1    
   111   56  123 1    
   112   56  124 1    
   113   57   58 2    
   114   57   59 am   BACKBONE|DICT|INTERRES
   115   59   60 1    
   116   59  125 1    
   117   60   61 1    
   118   60   62 1    
   119   60  126 1    
   120   61  127 1    
   121   61  128 1    
   122   61  129 1    
   123   62   63 2    
   124   62   64 am   BACKBONE|DICT|INTERRES
   125   64   65 1    
   126   64  130 1    
   127   65   66 1    
   128   65   69 1    
   129   65  131 1    
   130   66   67 am   BACKBONE|DICT|INTERRES
   131   66   68 2    
   132   67  132 1    
   133   67  133 1    
   134   69   70 1    
   135   69  134 1    
   136   69  135 1    
   137   70   71 1    
   138   71  136 1    
   139   71  137 1    
@<TRIPOS>SUBSTRUCTURE
     1 UNK         1 GROUP             0       ****    0 ROOT    
