@<TRIPOS>MOLECULE
3R136
137   139    1
SMALL
USER_CHARGES


@<TRIPOS>ATOM
      1 CA         30.3923   23.3198    5.2135 C.3       0 UNK        -0.1979 
      2 C          29.2958   23.3133    4.1592 C.2       0 UNK         0.4864 
      3 O          28.1238   23.1371    4.4959 O.2       0 UNK        -0.5359 
      4 N          29.6555   23.5180    2.8845 N.am      1 UNK        -0.4318 
      5 CA         28.7613   23.4802    1.7169 C.3       1 UNK         0.0824 
      6 C6         29.5105   23.0629    0.4197 C.3       12 UNK        -0.0944 
      7 S7         30.5535   21.5692    0.6593 S.3       12 UNK        -0.2672 
      8 C8         32.2822   22.0757    0.3095 C.3       12 UNK         0.0333 
      9 C9         32.5770   23.5404    0.6058 C.ar      12 UNK        -0.0807 
     10 C10        32.6993   23.9995    1.9196 C.ar      12 UNK        -0.0894 
     11 C11        32.8642   25.3646    2.1781 C.ar      12 UNK        -0.0804 
     12 C12        32.9302   26.2660    1.1107 C.ar      12 UNK        -0.0824 
     13 C13        32.8342   25.8174   -0.2103 C.ar      12 UNK        -0.0762 
     14 C14        32.6853   24.4468   -0.4514 C.ar      12 UNK        -0.0782 
     15 C15        32.8643   26.8342   -1.3532 C.3       12 UNK         0.0230 
     16 S16        31.8697   26.3643   -2.8158 S.3       12 UNK        -0.2608 
     17 C17        30.2327   26.0488   -2.0677 C.3       12 UNK        -0.0989 
     18 CA         29.0923   26.8828   -2.6938 C.3       5 UNK         0.0716 
     19 N          27.7883   26.3886   -2.2527 N.am      5 UNK        -0.4135 
     20 C          26.7311   26.2157   -3.0562 C.2       4 UNK         0.5031 
     21 O          26.7339   26.4469   -4.2662 O.2       4 UNK        -0.5229 
     22 CA         25.4443   25.6972   -2.3945 C.3       4 UNK         0.0329 
     23 CB         25.5652   24.2020   -2.0550 C.3       4 UNK        -0.2001 
     24 N          25.1002   26.4460   -1.1870 N.am      4 UNK        -0.4303 
     25 C          24.7316   27.7330   -1.1495 C.2       3 UNK         0.5044 
     26 O          24.5753   28.4273   -2.1543 O.2       3 UNK        -0.5152 
     27 CA         24.5173   28.3723    0.2346 C.3       3 UNK         0.0319 
     28 CB         23.0453   28.2721    0.6800 C.3       3 UNK        -0.2001 
     29 N          25.4399   27.8869    1.2700 N.am      3 UNK        -0.4354 
     30 C          25.4992   26.6867    1.8589 C.2       2 UNK         0.4964 
     31 O          24.7233   25.7572    1.6268 O.2       2 UNK        -0.5047 
     32 CA         26.6432   26.4895    2.8628 C.3       2 UNK         0.0288 
     33 CB         26.1209   26.5669    4.3059 C.3       2 UNK        -0.2113 
     34 N          27.3398   25.2206    2.6728 N.am      2 UNK        -0.4145 
     35 C          27.9901   24.8150    1.5730 C.2       1 UNK         0.5006 
     36 O          28.0297   25.4589    0.5181 O.2       1 UNK        -0.5103 
     37 C          29.2278   28.3820   -2.3756 C.2       5 UNK         0.5055 
     38 O          29.4832   29.1783   -3.2808 O.2       5 UNK        -0.5220 
     39 N          29.0638   28.7382   -1.0974 N.am      6 UNK        -0.4450 
     40 CA         29.2645   30.0760   -0.5463 C.3       6 UNK         0.0367 
     41 CB         30.7762   30.3703   -0.4259 C.3       6 UNK        -0.1929 
     42 C          28.5710   30.1356    0.8202 C.2       6 UNK         0.5070 
     43 O          27.9060   29.1735    1.2088 O.2       6 UNK        -0.5237 
     44 N          28.7440   31.2448    1.5469 N.am      7 UNK        -0.4739 
     45 CA         28.3575   31.3528    2.9561 C.3       7 UNK         0.0276 
     46 CB         28.4667   32.8220    3.3955 C.3       7 UNK        -0.1927 
     47 C          29.2541   30.4661    3.8385 C.2       7 UNK         0.5013 
     48 O          30.4342   30.2932    3.5231 O.2       7 UNK        -0.5193 
     49 N          28.7048   29.9706    4.9576 N.am      8 UNK        -0.4253 
     50 CA         29.3981   29.1058    5.9265 C.3       8 UNK         0.0242 
     51 CB         28.4307   28.7254    7.0581 C.3       8 UNK        -0.2000 
     52 C          30.6903   29.7112    6.5080 C.2       8 UNK         0.4948 
     53 O          31.6168   28.9673    6.8333 O.2       8 UNK        -0.5275 
     54 N          30.7582   31.0498    6.5565 N.am      9 UNK        -0.4246 
     55 CA         31.9333   31.8497    6.9141 C.3       9 UNK         0.0261 
     56 CB         31.5444   33.3374    6.8958 C.3       9 UNK        -0.1959 
     57 C          33.1763   31.6089    6.0319 C.2       9 UNK         0.5033 
     58 O          34.2773   31.9585    6.4595 O.2       9 UNK        -0.5390 
     59 N          33.0047   31.0031    4.8450 N.am      10 UNK        -0.4215 
     60 CA         34.0982   30.5304    3.9909 C.3       10 UNK         0.0240 
     61 CB         33.5334   30.0996    2.6272 C.3       10 UNK        -0.1982 
     62 C          34.9176   29.3859    4.6209 C.2       10 UNK         0.4970 
     63 O          36.0953   29.2531    4.2854 O.2       10 UNK        -0.4916 
     64 N          34.2986   28.6011    5.5144 N.am      11 UNK        -0.4279 
     65 CA         34.9498   27.5398    6.2981 C.3       11 UNK         0.1003 
     66 C          34.9573   27.8573    7.8172 C.2       11 UNK         0.5709 
     67 N          33.9477   28.5261    8.3615 N.am      11 UNK        -0.7358 
     68 O          35.9042   27.4995    8.5138 O.2       11 UNK        -0.4999 
     69 C69        34.3121   26.1517    6.0370 C.3       12 UNK        -0.0954 
     70 S70        34.5774   25.5718    4.3292 S.3       12 UNK        -0.2268 
     71 C71        32.9375   25.8689    3.6103 C.3       12 UNK         0.0203 
     72 H72        30.2068   22.5402    5.9520 H         1 UNK         0.0888 
     73 H73        30.4127   24.2789    5.7303 H         1 UNK         0.0888 
     74 H74        31.3743   23.1367    4.7797 H         1 UNK         0.0888 
     75 H75        30.6250   23.6872    2.6591 H         1 UNK         0.3017 
     76 H76        28.0061   22.7127    1.9014 H         1 UNK         0.0873 
     77 H77        30.1018   23.8902    0.0356 H         1 UNK         0.0745 
     78 H78        28.7869   22.8399   -0.3663 H         1 UNK         0.0745 
     79 H79        32.9561   21.4464    0.8926 H         1 UNK         0.0705 
     80 H80        32.4977   21.8519   -0.7364 H         1 UNK         0.0705 
     81 H81        32.6486   23.2958    2.7389 H         1 UNK         0.1334 
     82 H82        33.0471   27.3222    1.3091 H         1 UNK         0.1417 
     83 H83        32.6034   24.0832   -1.4662 H         1 UNK         0.1562 
     84 H84        33.8992   26.9794   -1.6651 H         1 UNK         0.0748 
     85 H85        32.5073   27.8032   -1.0011 H         1 UNK         0.0748 
     86 H86        30.2686   26.1973   -0.9871 H         1 UNK         0.0940 
     87 H87        30.0234   24.9873   -2.2091 H         1 UNK         0.0940 
     88 H88        29.1709   26.7736   -3.7779 H         1 UNK         0.0703 
     89 H89        27.7043   26.1455   -1.2688 H         1 UNK         0.3081 
     90 H90        24.6275   25.8196   -3.1091 H         1 UNK         0.0719 
     91 H91        26.3402   24.0140   -1.3109 H         1 UNK         0.0809 
     92 H92        24.6263   23.8081   -1.6652 H         1 UNK         0.0809 
     93 H93        25.8163   23.6195   -2.9426 H         1 UNK         0.0809 
     94 H94        25.1558   25.9544   -0.3008 H         1 UNK         0.2990 
     95 H95        24.7509   29.4322    0.1211 H         1 UNK         0.0690 
     96 H96        22.8867   28.7651    1.6391 H         1 UNK         0.0788 
     97 H97        22.7141   27.2376    0.7745 H         1 UNK         0.0788 
     98 H98        22.3886   28.7543   -0.0453 H         1 UNK         0.0788 
     99 H99        26.2270   28.5109    1.4457 H         1 UNK         0.2993 
    100 H100       27.3853   27.2765    2.7312 H         1 UNK         0.0949 
    101 H101       25.6439   27.5290    4.4978 H         1 UNK         0.0767 
    102 H102       25.3836   25.7887    4.5086 H         1 UNK         0.0767 
    103 H103       26.9312   26.4560    5.0267 H         1 UNK         0.0767 
    104 H104       27.3711   24.5946    3.4726 H         1 UNK         0.3013 
    105 H105       28.7678   28.0566   -0.4084 H         1 UNK         0.3121 
    106 H106       28.7909   30.8102   -1.2009 H         1 UNK         0.0774 
    107 H107       31.2852   30.2624   -1.3837 H         1 UNK         0.0815 
    108 H108       31.2581   29.6979    0.2854 H         1 UNK         0.0815 
    109 H109       30.9602   31.3896   -0.0860 H         1 UNK         0.0815 
    110 H110       29.3249   31.9838    1.1791 H         1 UNK         0.2987 
    111 H111       27.3203   31.0257    3.0593 H         1 UNK         0.0949 
    112 H112       29.4909   33.1909    3.3226 H         1 UNK         0.0806 
    113 H113       27.8340   33.4665    2.7850 H         1 UNK         0.0806 
    114 H114       28.1482   32.9475    4.4312 H         1 UNK         0.0806 
    115 H115       27.7363   30.1786    5.1555 H         1 UNK         0.3010 
    116 H116       29.6832   28.1934    5.3982 H         1 UNK         0.0829 
    117 H117       27.5488   28.2124    6.6753 H         1 UNK         0.0813 
    118 H118       28.9101   28.0521    7.7704 H         1 UNK         0.0813 
    119 H119       28.0946   29.6016    7.6142 H         1 UNK         0.0813 
    120 H120       29.9417   31.5654    6.2636 H         1 UNK         0.3038 
    121 H121       32.2110   31.5787    7.9348 H         1 UNK         0.0769 
    122 H122       31.2293   33.6595    5.9024 H         1 UNK         0.0811 
    123 H123       32.3866   33.9656    7.1897 H         1 UNK         0.0811 
    124 H124       30.7315   33.5454    7.5919 H         1 UNK         0.0811 
    125 H125       32.0632   30.7725    4.5365 H         1 UNK         0.3204 
    126 H126       34.7793   31.3682    3.8279 H         1 UNK         0.0748 
    127 H127       33.0201   30.9242    2.1320 H         1 UNK         0.0771 
    128 H128       34.3287   29.7640    1.9603 H         1 UNK         0.0771 
    129 H129       32.8224   29.2794    2.7291 H         1 UNK         0.0771 
    130 H130       33.3373   28.8009    5.7655 H         1 UNK         0.2980 
    131 H131       36.0008   27.4682    6.0118 H         1 UNK         0.0545 
    132 H132       33.9729   28.7303    9.3473 H         1 UNK         0.3459 
    133 H133       33.1172   28.7525    7.8202 H         1 UNK         0.3459 
    134 H134       34.7517   25.4004    6.6960 H         1 UNK         0.0616 
    135 H135       33.2450   26.1678    6.2668 H         1 UNK         0.0616 
    136 H136       32.1788   25.3716    4.2134 H         1 UNK         0.0634 
    137 H137       32.7134   26.9356    3.6558 H         1 UNK         0.0634 
@<TRIPOS>BOND
     1    1    2 1    
     2    1   72 1    
     3    1   73 1    
     4    1   74 1    
     5    2    3 2    
     6    2    4 am   BACKBONE|DICT|INTERRES
     7    4    5 1    
     8    4   75 1    
     9    5    6 1    
    10    5   35 1    
    11    5   76 1    
    12    6    7 1    
    13    6   77 1    
    14    6   78 1    
    15    7    8 1    
    16    8    9 1    
    17    8   79 1    
    18    8   80 1    
    19    9   10 ar   
    20    9   14 ar   
    21   10   11 ar   
    22   10   81 1    
    23   11   12 ar   
    24   11   71 1    
    25   12   13 ar   
    26   12   82 1    
    27   13   14 ar   
    28   13   15 1    
    29   14   83 1    
    30   15   16 1    
    31   15   84 1    
    32   15   85 1    
    33   16   17 1    
    34   17   18 1    
    35   17   86 1    
    36   17   87 1    
    37   18   19 1    
    38   18   37 1    
    39   18   88 1    
    40   19   20 am   BACKBONE|DICT|INTERRES
    41   19   89 1    
    42   20   21 2    
    43   20   22 1    
    44   22   23 1    
    45   22   24 1    
    46   22   90 1    
    47   23   91 1    
    48   23   92 1    
    49   23   93 1    
    50   24   25 am   BACKBONE|DICT|INTERRES
    51   24   94 1    
    52   25   26 2    
    53   25   27 1    
    54   27   28 1    
    55   27   29 1    
    56   27   95 1    
    57   28   96 1    
    58   28   97 1    
    59   28   98 1    
    60   29   30 am   BACKBONE|DICT|INTERRES
    61   29   99 1    
    62   30   31 2    
    63   30   32 1    
    64   32   33 1    
    65   32   34 1    
    66   32  100 1    
    67   33  101 1    
    68   33  102 1    
    69   33  103 1    
    70   34   35 am   BACKBONE|DICT|INTERRES
    71   34  104 1    
    72   35   36 2    
    73   37   38 2    
    74   37   39 am   BACKBONE|DICT|INTERRES
    75   39   40 1    
    76   39  105 1    
    77   40   41 1    
    78   40   42 1    
    79   40  106 1    
    80   41  107 1    
    81   41  108 1    
    82   41  109 1    
    83   42   43 2    
    84   42   44 am   BACKBONE|DICT|INTERRES
    85   44   45 1    
    86   44  110 1    
    87   45   46 1    
    88   45   47 1    
    89   45  111 1    
    90   46  112 1    
    91   46  113 1    
    92   46  114 1    
    93   47   48 2    
    94   47   49 am   BACKBONE|DICT|INTERRES
    95   49   50 1    
    96   49  115 1    
    97   50   51 1    
    98   50   52 1    
    99   50  116 1    
   100   51  117 1    
   101   51  118 1    
   102   51  119 1    
   103   52   53 2    
   104   52   54 am   BACKBONE|DICT|INTERRES
   105   54   55 1    
   106   54  120 1    
   107   55   56 1    
   108   55   57 1    
   109   55  121 1    
   110   56  122 1    
   111   56  123 1    
   112   56  124 1    
   113   57   58 2    
   114   57   59 am   BACKBONE|DICT|INTERRES
   115   59   60 1    
   116   59  125 1    
   117   60   61 1    
   118   60   62 1    
   119   60  126 1    
   120   61  127 1    
   121   61  128 1    
   122   61  129 1    
   123   62   63 2    
   124   62   64 am   BACKBONE|DICT|INTERRES
   125   64   65 1    
   126   64  130 1    
   127   65   66 1    
   128   65   69 1    
   129   65  131 1    
   130   66   67 am   BACKBONE|DICT|INTERRES
   131   66   68 2    
   132   67  132 1    
   133   67  133 1    
   134   69   70 1    
   135   69  134 1    
   136   69  135 1    
   137   70   71 1    
   138   71  136 1    
   139   71  137 1    
@<TRIPOS>SUBSTRUCTURE
     1 UNK         1 GROUP             0       ****    0 ROOT    
