@<TRIPOS>MOLECULE
3R136
137   139    1
SMALL
USER_CHARGES


@<TRIPOS>ATOM
      1 CA         27.4872   26.5508    3.8305 C.3       0 UNK        -0.1979 
      2 C          27.1165   25.0821    3.9741 C.2       0 UNK         0.4864 
      3 O          26.9066   24.6091    5.0922 O.2       0 UNK        -0.5359 
      4 N          27.0471   24.3577    2.8532 N.am      1 UNK        -0.4318 
      5 CA         26.7370   22.9263    2.7942 C.3       1 UNK         0.0824 
      6 C6         27.9618   22.0278    3.1413 C.3       12 UNK        -0.0944 
      7 S7         29.3535   22.1800    1.9656 S.3       12 UNK        -0.2672 
      8 C8         30.4524   23.3014    2.8930 C.3       12 UNK         0.0333 
      9 C9         31.3870   24.1014    1.9947 C.ar      12 UNK        -0.0807 
     10 C10        32.7366   24.2434    2.3309 C.ar      12 UNK        -0.0894 
     11 C11        33.5793   25.0527    1.5614 C.ar      12 UNK        -0.0804 
     12 C12        33.0735   25.6915    0.4251 C.ar      12 UNK        -0.0824 
     13 C13        31.7286   25.5509    0.0743 C.ar      12 UNK        -0.0762 
     14 C14        30.8921   24.7622    0.8671 C.ar      12 UNK        -0.0782 
     15 C15        31.1696   26.2560   -1.1528 C.3       12 UNK         0.0230 
     16 S16        31.1008   28.0641   -0.9520 S.3       12 UNK        -0.2608 
     17 C17        29.9827   28.2628    0.4764 C.3       12 UNK        -0.0989 
     18 CA         28.5777   28.7945    0.0668 C.3       5 UNK         0.0716 
     19 N          27.8107   27.8686   -0.7803 N.am      5 UNK        -0.4135 
     20 C          27.4173   26.6249   -0.4701 C.2       4 UNK         0.5031 
     21 O          27.7341   26.0330    0.5642 O.2       4 UNK        -0.5229 
     22 CA         26.4756   25.9125   -1.4557 C.3       4 UNK         0.0329 
     23 CB         26.2083   26.6613   -2.7834 C.3       4 UNK        -0.2001 
     24 N          26.9063   24.5266   -1.6590 N.am      4 UNK        -0.4303 
     25 C          27.9285   24.0726   -2.4016 C.2       3 UNK         0.5044 
     26 O          28.6030   24.7851   -3.1452 O.2       3 UNK        -0.5152 
     27 CA         28.2811   22.5712   -2.3048 C.3       3 UNK         0.0319 
     28 CB         29.7768   22.3699   -2.0021 C.3       3 UNK        -0.2001 
     29 N          27.5003   21.8494   -1.2970 N.am      3 UNK        -0.4354 
     30 C          26.2527   21.3881   -1.4654 C.2       2 UNK         0.4964 
     31 O          25.6455   21.4344   -2.5352 O.2       2 UNK        -0.5047 
     32 CA         25.5453   20.8127   -0.2221 C.3       2 UNK         0.0288 
     33 CB         25.6160   19.2769   -0.2267 C.3       2 UNK        -0.2113 
     34 N          26.0729   21.3146    1.0538 N.am      2 UNK        -0.4145 
     35 C          26.0584   22.5973    1.4485 C.2       1 UNK         0.5006 
     36 O          25.5501   23.4996    0.7779 O.2       1 UNK        -0.5103 
     37 C          27.7457   29.2950    1.2731 C.2       5 UNK         0.5055 
     38 O          26.5472   29.0182    1.3732 O.2       5 UNK        -0.5220 
     39 N          28.3899   30.0734    2.1465 N.am      6 UNK        -0.4450 
     40 CA         27.8480   30.6943    3.3491 C.3       6 UNK         0.0367 
     41 CB         26.9449   31.8871    2.9739 C.3       6 UNK        -0.1929 
     42 C          29.0414   31.1499    4.1984 C.2       6 UNK         0.5070 
     43 O          30.1791   31.1034    3.7223 O.2       6 UNK        -0.5237 
     44 N          28.7670   31.6334    5.4178 N.am      7 UNK        -0.4739 
     45 CA         29.7611   32.1066    6.3947 C.3       7 UNK         0.0276 
     46 CB         29.0372   32.5706    7.6685 C.3       7 UNK        -0.1927 
     47 C          30.7103   33.2105    5.8862 C.2       7 UNK         0.5013 
     48 O          31.8278   33.3189    6.3901 O.2       7 UNK        -0.5193 
     49 N          30.2860   33.9672    4.8637 N.am      8 UNK        -0.4253 
     50 CA         31.1073   34.9332    4.1262 C.3       8 UNK         0.0242 
     51 CB         30.2193   35.6807    3.1181 C.3       8 UNK        -0.2000 
     52 C          32.3233   34.3079    3.4101 C.2       8 UNK         0.4948 
     53 O          33.3142   35.0078    3.1995 O.2       8 UNK        -0.5275 
     54 N          32.2451   33.0115    3.0743 N.am      9 UNK        -0.4246 
     55 CA         33.3390   32.2175    2.5070 C.3       9 UNK         0.0261 
     56 CB         32.7565   31.2590    1.4526 C.3       9 UNK        -0.1959 
     57 C          34.1118   31.4327    3.5868 C.2       9 UNK         0.5033 
     58 O          34.9480   30.6001    3.2323 O.2       9 UNK        -0.5390 
     59 N          33.8173   31.6844    4.8725 N.am      10 UNK        -0.4215 
     60 CA         34.2886   30.9896    6.0746 C.3       10 UNK         0.0240 
     61 CB         35.8248   31.0219    6.2181 C.3       10 UNK        -0.1982 
     62 C          33.7148   29.5691    6.1848 C.2       10 UNK         0.4970 
     63 O          32.9222   29.3130    7.0922 O.2       10 UNK        -0.4916 
     64 N          34.1145   28.6815    5.2687 N.am      11 UNK        -0.4279 
     65 CA         33.5933   27.3157    5.1531 C.3       11 UNK         0.1003 
     66 C          32.2201   27.2687    4.4272 C.2       11 UNK         0.5709 
     67 N          31.3714   26.3121    4.7793 N.am      11 UNK        -0.7358 
     68 O          31.9174   28.0778    3.5533 O.2       11 UNK        -0.4999 
     69 C69        34.6460   26.3472    4.5504 C.3       12 UNK        -0.0954 
     70 S70        35.2695   26.8016    2.8932 S.3       12 UNK        -0.2268 
     71 C71        35.0333   25.2541    1.9596 C.3       12 UNK         0.0203 
     72 H72        27.8453   26.9550    4.7770 H         1 UNK         0.0888 
     73 H73        28.2747   26.6848    3.0894 H         1 UNK         0.0888 
     74 H74        26.6186   27.1296    3.5175 H         1 UNK         0.0888 
     75 H75        27.1865   24.8117    1.9509 H         1 UNK         0.3017 
     76 H76        25.9658   22.7279    3.5416 H         1 UNK         0.0873 
     77 H77        27.6711   20.9778    3.1949 H         1 UNK         0.0745 
     78 H78        28.3148   22.2639    4.1464 H         1 UNK         0.0745 
     79 H79        29.8558   24.0110    3.4653 H         1 UNK         0.0705 
     80 H80        31.0160   22.7135    3.6189 H         1 UNK         0.0705 
     81 H81        33.1238   23.7491    3.2108 H         1 UNK         0.1334 
     82 H82        33.7199   26.3191   -0.1731 H         1 UNK         0.1417 
     83 H83        29.8462   24.6688    0.6126 H         1 UNK         0.1562 
     84 H84        30.1692   25.8926   -1.3820 H         1 UNK         0.0748 
     85 H85        31.7875   26.0169   -2.0192 H         1 UNK         0.0748 
     86 H86        30.4948   28.9532    1.1460 H         1 UNK         0.0940 
     87 H87        29.9019   27.3361    1.0428 H         1 UNK         0.0940 
     88 H88        28.7336   29.6823   -0.5481 H         1 UNK         0.0703 
     89 H89        27.4742   28.2607   -1.6469 H         1 UNK         0.3081 
     90 H90        25.5187   25.8402   -0.9366 H         1 UNK         0.0719 
     91 H91        27.1246   26.8847   -3.3305 H         1 UNK         0.0809 
     92 H92        25.5682   26.0727   -3.4407 H         1 UNK         0.0809 
     93 H93        25.6925   27.6054   -2.6043 H         1 UNK         0.0809 
     94 H94        26.4558   23.8700   -1.0312 H         1 UNK         0.2990 
     95 H95        28.0764   22.1351   -3.2848 H         1 UNK         0.0690 
     96 H96        30.0406   21.3123   -1.9945 H         1 UNK         0.0788 
     97 H97        30.0535   22.7895   -1.0354 H         1 UNK         0.0788 
     98 H98        30.4018   22.8506   -2.7560 H         1 UNK         0.0788 
     99 H99        27.9204   21.7660   -0.3816 H         1 UNK         0.2993 
    100 H100       24.4959   21.1094   -0.2846 H         1 UNK         0.0949 
    101 H101       25.0412   18.8499    0.5955 H         1 UNK         0.0767 
    102 H102       25.2049   18.8697   -1.1517 H         1 UNK         0.0767 
    103 H103       26.6432   18.9196   -0.1415 H         1 UNK         0.0767 
    104 H104       26.5137   20.6325    1.6541 H         1 UNK         0.3013 
    105 H105       29.3856   30.2386    2.0477 H         1 UNK         0.3121 
    106 H106       27.2801   29.9514    3.9128 H         1 UNK         0.0774 
    107 H107       26.5281   32.3659    3.8605 H         1 UNK         0.0815 
    108 H108       27.4943   32.6479    2.4179 H         1 UNK         0.0815 
    109 H109       26.1013   31.5719    2.3599 H         1 UNK         0.0815 
    110 H110       27.8033   31.6501    5.7213 H         1 UNK         0.2987 
    111 H111       30.3895   31.2505    6.6514 H         1 UNK         0.0949 
    112 H112       28.3617   33.4033    7.4685 H         1 UNK         0.0806 
    113 H113       28.4551   31.7628    8.1123 H         1 UNK         0.0806 
    114 H114       29.7504   32.9039    8.4241 H         1 UNK         0.0806 
    115 H115       29.3518   33.8058    4.5173 H         1 UNK         0.3010 
    116 H116       31.4930   35.6563    4.8480 H         1 UNK         0.0829 
    117 H117       29.4046   36.2053    3.6177 H         1 UNK         0.0813 
    118 H118       30.7950   36.4283    2.5704 H         1 UNK         0.0813 
    119 H119       29.7836   35.0026    2.3830 H         1 UNK         0.0813 
    120 H120       31.4032   32.4876    3.3066 H         1 UNK         0.3038 
    121 H121       34.0545   32.8745    2.0085 H         1 UNK         0.0769 
    122 H122       33.5492   30.7279    0.9240 H         1 UNK         0.0811 
    123 H123       32.1693   31.7919    0.7049 H         1 UNK         0.0811 
    124 H124       32.1173   30.5050    1.9124 H         1 UNK         0.0811 
    125 H125       33.1070   32.3839    5.0601 H         1 UNK         0.3204 
    126 H126       33.8814   31.5552    6.9143 H         1 UNK         0.0748 
    127 H127       36.1317   30.5866    7.1699 H         1 UNK         0.0771 
    128 H128       36.3318   30.4625    5.4319 H         1 UNK         0.0771 
    129 H129       36.2006   32.0448    6.1942 H         1 UNK         0.0771 
    130 H130       34.6726   29.0177    4.4904 H         1 UNK         0.2980 
    131 H131       33.4127   26.9602    6.1698 H         1 UNK         0.0545 
    132 H132       31.6005   25.6477    5.5009 H         1 UNK         0.3459 
    133 H133       30.4836   26.2653    4.3108 H         1 UNK         0.3459 
    134 H134       34.2507   25.3317    4.5352 H         1 UNK         0.0616 
    135 H135       35.5100   26.3046    5.2150 H         1 UNK         0.0616 
    136 H136       35.3973   24.4093    2.5465 H         1 UNK         0.0634 
    137 H137       35.6536   25.2900    1.0629 H         1 UNK         0.0634 
@<TRIPOS>BOND
     1    1    2 1    
     2    1   72 1    
     3    1   73 1    
     4    1   74 1    
     5    2    3 2    
     6    2    4 am   BACKBONE|DICT|INTERRES
     7    4    5 1    
     8    4   75 1    
     9    5    6 1    
    10    5   35 1    
    11    5   76 1    
    12    6    7 1    
    13    6   77 1    
    14    6   78 1    
    15    7    8 1    
    16    8    9 1    
    17    8   79 1    
    18    8   80 1    
    19    9   10 ar   
    20    9   14 ar   
    21   10   11 ar   
    22   10   81 1    
    23   11   12 ar   
    24   11   71 1    
    25   12   13 ar   
    26   12   82 1    
    27   13   14 ar   
    28   13   15 1    
    29   14   83 1    
    30   15   16 1    
    31   15   84 1    
    32   15   85 1    
    33   16   17 1    
    34   17   18 1    
    35   17   86 1    
    36   17   87 1    
    37   18   19 1    
    38   18   37 1    
    39   18   88 1    
    40   19   20 am   BACKBONE|DICT|INTERRES
    41   19   89 1    
    42   20   21 2    
    43   20   22 1    
    44   22   23 1    
    45   22   24 1    
    46   22   90 1    
    47   23   91 1    
    48   23   92 1    
    49   23   93 1    
    50   24   25 am   BACKBONE|DICT|INTERRES
    51   24   94 1    
    52   25   26 2    
    53   25   27 1    
    54   27   28 1    
    55   27   29 1    
    56   27   95 1    
    57   28   96 1    
    58   28   97 1    
    59   28   98 1    
    60   29   30 am   BACKBONE|DICT|INTERRES
    61   29   99 1    
    62   30   31 2    
    63   30   32 1    
    64   32   33 1    
    65   32   34 1    
    66   32  100 1    
    67   33  101 1    
    68   33  102 1    
    69   33  103 1    
    70   34   35 am   BACKBONE|DICT|INTERRES
    71   34  104 1    
    72   35   36 2    
    73   37   38 2    
    74   37   39 am   BACKBONE|DICT|INTERRES
    75   39   40 1    
    76   39  105 1    
    77   40   41 1    
    78   40   42 1    
    79   40  106 1    
    80   41  107 1    
    81   41  108 1    
    82   41  109 1    
    83   42   43 2    
    84   42   44 am   BACKBONE|DICT|INTERRES
    85   44   45 1    
    86   44  110 1    
    87   45   46 1    
    88   45   47 1    
    89   45  111 1    
    90   46  112 1    
    91   46  113 1    
    92   46  114 1    
    93   47   48 2    
    94   47   49 am   BACKBONE|DICT|INTERRES
    95   49   50 1    
    96   49  115 1    
    97   50   51 1    
    98   50   52 1    
    99   50  116 1    
   100   51  117 1    
   101   51  118 1    
   102   51  119 1    
   103   52   53 2    
   104   52   54 am   BACKBONE|DICT|INTERRES
   105   54   55 1    
   106   54  120 1    
   107   55   56 1    
   108   55   57 1    
   109   55  121 1    
   110   56  122 1    
   111   56  123 1    
   112   56  124 1    
   113   57   58 2    
   114   57   59 am   BACKBONE|DICT|INTERRES
   115   59   60 1    
   116   59  125 1    
   117   60   61 1    
   118   60   62 1    
   119   60  126 1    
   120   61  127 1    
   121   61  128 1    
   122   61  129 1    
   123   62   63 2    
   124   62   64 am   BACKBONE|DICT|INTERRES
   125   64   65 1    
   126   64  130 1    
   127   65   66 1    
   128   65   69 1    
   129   65  131 1    
   130   66   67 am   BACKBONE|DICT|INTERRES
   131   66   68 2    
   132   67  132 1    
   133   67  133 1    
   134   69   70 1    
   135   69  134 1    
   136   69  135 1    
   137   70   71 1    
   138   71  136 1    
   139   71  137 1    
@<TRIPOS>SUBSTRUCTURE
     1 UNK         1 GROUP             0       ****    0 ROOT    
