@<TRIPOS>MOLECULE
3R136
137   139    1
SMALL
USER_CHARGES


@<TRIPOS>ATOM
      1 CA         32.3618   26.3041   -2.1141 C.3       0 UNK        -0.1979 
      2 C          31.0263   25.5878   -2.2532 C.2       0 UNK         0.4864 
      3 O          30.4025   25.6669   -3.3108 O.2       0 UNK        -0.5359 
      4 N          30.5871   24.9160   -1.1808 N.am      1 UNK        -0.4318 
      5 CA         29.3347   24.1579   -1.0376 C.3       1 UNK         0.0824 
      6 C6         29.2763   23.5174    0.3722 C.3       12 UNK        -0.0944 
      7 S7         29.3458   24.7678    1.6929 S.3       12 UNK        -0.2672 
      8 C8         29.2873   23.6942    3.1562 C.3       12 UNK         0.0333 
      9 C9         29.4297   24.5269    4.4170 C.ar      12 UNK        -0.0807 
     10 C10        30.6733   24.6649    5.0366 C.ar      12 UNK        -0.0894 
     11 C11        30.8160   25.4758    6.1652 C.ar      12 UNK        -0.0804 
     12 C12        29.7035   26.1631    6.6639 C.ar      12 UNK        -0.0824 
     13 C13        28.4488   26.0302    6.0553 C.ar      12 UNK        -0.0762 
     14 C14        28.3187   25.1853    4.9468 C.ar      12 UNK        -0.0782 
     15 C15        27.2515   26.7902    6.6288 C.3       12 UNK         0.0230 
     16 S16        25.9661   27.2497    5.4083 S.3       12 UNK        -0.2608 
     17 C17        26.8728   28.3795    4.2964 C.3       12 UNK        -0.0989 
     18 CA         27.0015   27.8303    2.8485 C.3       5 UNK         0.0716 
     19 N          25.6903   27.5754    2.2347 N.am      5 UNK        -0.4135 
     20 C          25.4552   26.8085    1.1615 C.2       4 UNK         0.5031 
     21 O          26.3380   26.2168    0.5334 O.2       4 UNK        -0.5229 
     22 CA         24.0022   26.7539    0.6677 C.3       4 UNK         0.0329 
     23 CB         23.6435   28.0507   -0.0785 C.3       4 UNK        -0.2001 
     24 N          23.8211   25.6271   -0.2460 N.am      4 UNK        -0.4303 
     25 C          23.5128   24.3781    0.1240 C.2       3 UNK         0.5044 
     26 O          23.2278   24.0495    1.2764 O.2       3 UNK        -0.5152 
     27 CA         23.5228   23.3148   -0.9875 C.3       3 UNK         0.0319 
     28 CB         22.1544   23.2515   -1.6861 C.3       3 UNK        -0.2001 
     29 N          24.5700   23.5598   -1.9856 N.am      3 UNK        -0.4354 
     30 C          25.8627   23.2543   -1.8079 C.2       2 UNK         0.4964 
     31 O          26.2949   22.6799   -0.8095 O.2       2 UNK        -0.5047 
     32 CA         26.8054   23.6302   -2.9638 C.3       2 UNK         0.0288 
     33 CB         26.9137   25.1580   -3.1649 C.3       2 UNK        -0.2113 
     34 N          28.1132   22.9511   -2.9159 N.am      2 UNK        -0.4145 
     35 C          29.2020   23.0706   -2.1332 C.2       1 UNK         0.5006 
     36 O          30.1483   22.2934   -2.2767 O.2       1 UNK        -0.5103 
     37 C          27.8945   28.7346    1.9663 C.2       5 UNK         0.5055 
     38 O          28.3738   29.7718    2.4236 O.2       5 UNK        -0.5220 
     39 N          28.1284   28.3243    0.7145 N.am      6 UNK        -0.4450 
     40 CA         28.9865   29.0050   -0.2597 C.3       6 UNK         0.0367 
     41 CB         28.7428   28.4001   -1.6498 C.3       6 UNK        -0.1929 
     42 C          30.4810   28.9870    0.1178 C.2       6 UNK         0.5070 
     43 O          31.2476   29.7947   -0.4056 O.2       6 UNK        -0.5237 
     44 N          30.8624   28.1080    1.0551 N.am      7 UNK        -0.4739 
     45 CA         32.1781   28.0636    1.6953 C.3       7 UNK         0.0276 
     46 CB         32.3646   26.6881    2.3533 C.3       7 UNK        -0.1927 
     47 C          32.4195   29.1902    2.7221 C.2       7 UNK         0.5013 
     48 O          33.5165   29.2446    3.2791 O.2       7 UNK        -0.5193 
     49 N          31.4369   30.0787    2.9579 N.am      8 UNK        -0.4253 
     50 CA         31.4904   31.2180    3.8907 C.3       8 UNK         0.0242 
     51 CB         30.1819   32.0195    3.8095 C.3       8 UNK        -0.2000 
     52 C          32.6975   32.1630    3.7377 C.2       8 UNK         0.4948 
     53 O          33.0650   32.8147    4.7147 O.2       8 UNK        -0.5275 
     54 N          33.3300   32.1869    2.5556 N.am      9 UNK        -0.4246 
     55 CA         34.6151   32.8501    2.3099 C.3       9 UNK         0.0261 
     56 CB         34.9673   32.7319    0.8183 C.3       9 UNK        -0.1959 
     57 C          35.7694   32.3091    3.1813 C.2       9 UNK         0.5033 
     58 O          36.6934   33.0664    3.4824 O.2       9 UNK        -0.5390 
     59 N          35.6891   31.0316    3.5790 N.am      10 UNK        -0.4215 
     60 CA         36.5927   30.3822    4.5277 C.3       10 UNK         0.0240 
     61 CB         37.0845   29.0523    3.9315 C.3       10 UNK        -0.1982 
     62 C          35.8952   30.1394    5.8761 C.2       10 UNK         0.4970 
     63 O          36.5137   30.3641    6.9170 O.2       10 UNK        -0.4916 
     64 N          34.6384   29.6744    5.8401 N.am      11 UNK        -0.4279 
     65 CA         33.8430   29.3116    7.0252 C.3       11 UNK         0.1003 
     66 C          33.3523   30.5082    7.8894 C.2       11 UNK         0.5709 
     67 N          33.3229   31.7377    7.3919 N.am      11 UNK        -0.7358 
     68 O          32.9999   30.3148    9.0505 O.2       11 UNK        -0.4999 
     69 C69        32.6677   28.3665    6.6582 C.3       12 UNK        -0.0954 
     70 S70        33.2573   26.7760    5.9900 S.3       12 UNK        -0.2268 
     71 C71        32.1743   25.5885    6.8430 C.3       12 UNK         0.0203 
     72 H72        32.2298   27.3744   -2.2722 H         1 UNK         0.0888 
     73 H73        32.8018   26.1618   -1.1271 H         1 UNK         0.0888 
     74 H74        33.0667   25.9327   -2.8574 H         1 UNK         0.0888 
     75 H75        31.1657   24.8999   -0.3544 H         1 UNK         0.3017 
     76 H76        28.5168   24.8664   -1.1097 H         1 UNK         0.0873 
     77 H77        28.3649   22.9380    0.5105 H         1 UNK         0.0745 
     78 H78        30.1035   22.8184    0.5120 H         1 UNK         0.0745 
     79 H79        28.3441   23.1457    3.1704 H         1 UNK         0.0705 
     80 H80        30.0833   22.9501    3.0974 H         1 UNK         0.0705 
     81 H81        31.5360   24.1524    4.6328 H         1 UNK         0.1334 
     82 H82        29.8147   26.7978    7.5325 H         1 UNK         0.1417 
     83 H83        27.3573   25.0568    4.4694 H         1 UNK         0.1562 
     84 H84        27.5888   27.7000    7.1281 H         1 UNK         0.0748 
     85 H85        26.7895   26.1705    7.3983 H         1 UNK         0.0748 
     86 H86        27.8614   28.5688    4.7203 H         1 UNK         0.0940 
     87 H87        26.3602   29.3434    4.2956 H         1 UNK         0.0940 
     88 H88        27.5226   26.8744    2.9055 H         1 UNK         0.0703 
     89 H89        24.9096   28.0407    2.6741 H         1 UNK         0.3081 
     90 H90        23.3395   26.6420    1.5287 H         1 UNK         0.0719 
     91 H91        24.3055   28.2253   -0.9281 H         1 UNK         0.0809 
     92 H92        22.6198   28.0215   -0.4526 H         1 UNK         0.0809 
     93 H93        23.7201   28.9190    0.5770 H         1 UNK         0.0809 
     94 H94        24.0964   25.7822   -1.2037 H         1 UNK         0.2990 
     95 H95        23.7048   22.3455   -0.5176 H         1 UNK         0.0690 
     96 H96        22.1257   22.4552   -2.4301 H         1 UNK         0.0788 
     97 H97        21.9093   24.1890   -2.1868 H         1 UNK         0.0788 
     98 H98        21.3595   23.0492   -0.9667 H         1 UNK         0.0788 
     99 H99        24.2839   24.0026   -2.8473 H         1 UNK         0.2993 
    100 H100       26.3439   23.2272   -3.8673 H         1 UNK         0.0949 
    101 H101       27.8056   25.4348   -3.7260 H         1 UNK         0.0767 
    102 H102       26.0597   25.5250   -3.7348 H         1 UNK         0.0767 
    103 H103       26.9092   25.7135   -2.2274 H         1 UNK         0.0767 
    104 H104       28.1660   22.1901   -3.5776 H         1 UNK         0.3013 
    105 H105       27.6723   27.4610    0.4213 H         1 UNK         0.3121 
    106 H106       28.6874   30.0548   -0.2929 H         1 UNK         0.0774 
    107 H107       28.8582   27.3181   -1.6411 H         1 UNK         0.0815 
    108 H108       29.4382   28.8019   -2.3882 H         1 UNK         0.0815 
    109 H109       27.7346   28.6190   -2.0018 H         1 UNK         0.0815 
    110 H110       30.1652   27.4724    1.4173 H         1 UNK         0.2987 
    111 H111       32.9399   28.1757    0.9209 H         1 UNK         0.0949 
    112 H112       31.6326   26.5242    3.1443 H         1 UNK         0.0806 
    113 H113       32.2668   25.8799    1.6293 H         1 UNK         0.0806 
    114 H114       33.3540   26.5966    2.8037 H         1 UNK         0.0806 
    115 H115       30.5499   29.9409    2.4874 H         1 UNK         0.3010 
    116 H116       31.5579   30.8035    4.8966 H         1 UNK         0.0829 
    117 H117       29.3378   31.4331    4.1712 H         1 UNK         0.0813 
    118 H118       30.2271   32.9176    4.4276 H         1 UNK         0.0813 
    119 H119       29.9630   32.3346    2.7887 H         1 UNK         0.0813 
    120 H120       32.9515   31.6301    1.8027 H         1 UNK         0.3038 
    121 H121       34.4917   33.9077    2.5522 H         1 UNK         0.0769 
    122 H122       35.0779   31.6912    0.5105 H         1 UNK         0.0811 
    123 H123       35.9083   33.2384    0.5987 H         1 UNK         0.0811 
    124 H124       34.2016   33.1891    0.1913 H         1 UNK         0.0811 
    125 H125       34.8793   30.4843    3.2945 H         1 UNK         0.3204 
    126 H126       37.4651   31.0120    4.7143 H         1 UNK         0.0748 
    127 H127       37.6311   29.2153    3.0026 H         1 UNK         0.0771 
    128 H128       37.7591   28.5413    4.6198 H         1 UNK         0.0771 
    129 H129       36.2582   28.3725    3.7178 H         1 UNK         0.0771 
    130 H130       34.2080   29.4747    4.9410 H         1 UNK         0.2980 
    131 H131       34.5074   28.7470    7.6826 H         1 UNK         0.0545 
    132 H132       33.0095   32.4904    7.9829 H         1 UNK         0.3459 
    133 H133       33.5444   31.9307    6.4220 H         1 UNK         0.3459 
    134 H134       32.0500   28.1701    7.5359 H         1 UNK         0.0616 
    135 H135       32.0085   28.8241    5.9213 H         1 UNK         0.0616 
    136 H136       32.6612   24.6122    6.8361 H         1 UNK         0.0634 
    137 H137       32.0670   25.8617    7.8937 H         1 UNK         0.0634 
@<TRIPOS>BOND
     1    1    2 1    
     2    1   72 1    
     3    1   73 1    
     4    1   74 1    
     5    2    3 2    
     6    2    4 am   BACKBONE|DICT|INTERRES
     7    4    5 1    
     8    4   75 1    
     9    5    6 1    
    10    5   35 1    
    11    5   76 1    
    12    6    7 1    
    13    6   77 1    
    14    6   78 1    
    15    7    8 1    
    16    8    9 1    
    17    8   79 1    
    18    8   80 1    
    19    9   10 ar   
    20    9   14 ar   
    21   10   11 ar   
    22   10   81 1    
    23   11   12 ar   
    24   11   71 1    
    25   12   13 ar   
    26   12   82 1    
    27   13   14 ar   
    28   13   15 1    
    29   14   83 1    
    30   15   16 1    
    31   15   84 1    
    32   15   85 1    
    33   16   17 1    
    34   17   18 1    
    35   17   86 1    
    36   17   87 1    
    37   18   19 1    
    38   18   37 1    
    39   18   88 1    
    40   19   20 am   BACKBONE|DICT|INTERRES
    41   19   89 1    
    42   20   21 2    
    43   20   22 1    
    44   22   23 1    
    45   22   24 1    
    46   22   90 1    
    47   23   91 1    
    48   23   92 1    
    49   23   93 1    
    50   24   25 am   BACKBONE|DICT|INTERRES
    51   24   94 1    
    52   25   26 2    
    53   25   27 1    
    54   27   28 1    
    55   27   29 1    
    56   27   95 1    
    57   28   96 1    
    58   28   97 1    
    59   28   98 1    
    60   29   30 am   BACKBONE|DICT|INTERRES
    61   29   99 1    
    62   30   31 2    
    63   30   32 1    
    64   32   33 1    
    65   32   34 1    
    66   32  100 1    
    67   33  101 1    
    68   33  102 1    
    69   33  103 1    
    70   34   35 am   BACKBONE|DICT|INTERRES
    71   34  104 1    
    72   35   36 2    
    73   37   38 2    
    74   37   39 am   BACKBONE|DICT|INTERRES
    75   39   40 1    
    76   39  105 1    
    77   40   41 1    
    78   40   42 1    
    79   40  106 1    
    80   41  107 1    
    81   41  108 1    
    82   41  109 1    
    83   42   43 2    
    84   42   44 am   BACKBONE|DICT|INTERRES
    85   44   45 1    
    86   44  110 1    
    87   45   46 1    
    88   45   47 1    
    89   45  111 1    
    90   46  112 1    
    91   46  113 1    
    92   46  114 1    
    93   47   48 2    
    94   47   49 am   BACKBONE|DICT|INTERRES
    95   49   50 1    
    96   49  115 1    
    97   50   51 1    
    98   50   52 1    
    99   50  116 1    
   100   51  117 1    
   101   51  118 1    
   102   51  119 1    
   103   52   53 2    
   104   52   54 am   BACKBONE|DICT|INTERRES
   105   54   55 1    
   106   54  120 1    
   107   55   56 1    
   108   55   57 1    
   109   55  121 1    
   110   56  122 1    
   111   56  123 1    
   112   56  124 1    
   113   57   58 2    
   114   57   59 am   BACKBONE|DICT|INTERRES
   115   59   60 1    
   116   59  125 1    
   117   60   61 1    
   118   60   62 1    
   119   60  126 1    
   120   61  127 1    
   121   61  128 1    
   122   61  129 1    
   123   62   63 2    
   124   62   64 am   BACKBONE|DICT|INTERRES
   125   64   65 1    
   126   64  130 1    
   127   65   66 1    
   128   65   69 1    
   129   65  131 1    
   130   66   67 am   BACKBONE|DICT|INTERRES
   131   66   68 2    
   132   67  132 1    
   133   67  133 1    
   134   69   70 1    
   135   69  134 1    
   136   69  135 1    
   137   70   71 1    
   138   71  136 1    
   139   71  137 1    
@<TRIPOS>SUBSTRUCTURE
     1 UNK         1 GROUP             0       ****    0 ROOT    
