@<TRIPOS>MOLECULE
3R136
137   139    1
SMALL
USER_CHARGES


@<TRIPOS>ATOM
      1 CA         33.6951   18.7377   -0.3906 C.3       0 UNK        -0.1979 
      2 C          33.1431   19.9854    0.2834 C.2       0 UNK         0.4864 
      3 O          33.9175   20.8509    0.6950 O.2       0 UNK        -0.5359 
      4 N          31.8130   20.0789    0.4070 N.am      1 UNK        -0.4318 
      5 CA         31.1040   21.2270    0.9821 C.3       1 UNK         0.0824 
      6 C6         29.6435   20.8675    1.3516 C.3       12 UNK        -0.0944 
      7 S7         29.6132   19.7757    2.8154 S.3       12 UNK        -0.2672 
      8 C8         28.8007   20.8033    4.0907 C.3       12 UNK         0.0333 
      9 C9         29.3340   22.2313    4.1783 C.ar      12 UNK        -0.0807 
     10 C10        30.7019   22.4856    4.3252 C.ar      12 UNK        -0.0894 
     11 C11        31.1804   23.7994    4.3652 C.ar      12 UNK        -0.0804 
     12 C12        30.2760   24.8646    4.2948 C.ar      12 UNK        -0.0824 
     13 C13        28.9030   24.6234    4.1868 C.ar      12 UNK        -0.0762 
     14 C14        28.4415   23.3060    4.1198 C.ar      12 UNK        -0.0782 
     15 C15        27.9071   25.7746    4.1908 C.3       12 UNK         0.0230 
     16 S16        27.0891   25.9835    2.5777 S.3       12 UNK        -0.2608 
     17 C17        25.8202   27.2232    3.0063 C.3       12 UNK        -0.0989 
     18 CA         26.2988   28.6567    2.6860 C.3       5 UNK         0.0716 
     19 N          26.4509   28.8908    1.2471 N.am      5 UNK        -0.4135 
     20 C          26.9760   29.9976    0.7045 C.2       4 UNK         0.5031 
     21 O          27.4560   30.9195    1.3731 O.2       4 UNK        -0.5229 
     22 CA         26.9649   30.0758   -0.8348 C.3       4 UNK         0.0329 
     23 CB         27.7458   31.2918   -1.3803 C.3       4 UNK        -0.2001 
     24 N          27.4178   28.8305   -1.4724 N.am      4 UNK        -0.4303 
     25 C          28.6399   28.2844   -1.3860 C.2       3 UNK         0.5044 
     26 O          29.5800   28.7798   -0.7603 O.2       3 UNK        -0.5152 
     27 CA         28.8574   26.9830   -2.1749 C.3       3 UNK         0.0319 
     28 CB         29.1295   27.2920   -3.6568 C.3       3 UNK        -0.2001 
     29 N          30.0067   26.2656   -1.6251 N.am      3 UNK        -0.4354 
     30 C          29.9344   25.3297   -0.6731 C.2       2 UNK         0.4964 
     31 O          28.8809   24.8303   -0.2724 O.2       2 UNK        -0.5047 
     32 CA         31.2772   24.9279   -0.0399 C.3       2 UNK         0.0288 
     33 CB         31.7357   25.9968    0.9667 C.3       2 UNK        -0.2113 
     34 N          31.2048   23.6419    0.6520 N.am      2 UNK        -0.4145 
     35 C          31.1665   22.4491    0.0459 C.2       1 UNK         0.5006 
     36 O          31.1809   22.2941   -1.1792 O.2       1 UNK        -0.5103 
     37 C          25.3818   29.7181    3.3222 C.2       5 UNK         0.5055 
     38 O          24.2921   29.9724    2.8044 O.2       5 UNK        -0.5220 
     39 N          25.8725   30.3260    4.4126 N.am      6 UNK        -0.4450 
     40 CA         25.2928   31.4621    5.1410 C.3       6 UNK         0.0367 
     41 CB         23.9120   31.1060    5.7342 C.3       6 UNK        -0.1929 
     42 C          25.2726   32.7821    4.3384 C.2       6 UNK         0.5070 
     43 O          24.5444   33.7004    4.7189 O.2       6 UNK        -0.5237 
     44 N          26.0770   32.8754    3.2693 N.am      7 UNK        -0.4739 
     45 CA         26.2132   34.0669    2.4302 C.3       7 UNK         0.0276 
     46 CB         25.4578   33.8669    1.1050 C.3       7 UNK        -0.1927 
     47 C          27.6868   34.4278    2.1965 C.2       7 UNK         0.5013 
     48 O          28.0621   35.5732    2.4511 O.2       7 UNK        -0.5193 
     49 N          28.4962   33.4679    1.7252 N.am      8 UNK        -0.4253 
     50 CA         29.9072   33.6862    1.3781 C.3       8 UNK         0.0242 
     51 CB         30.0079   34.2328   -0.0605 C.3       8 UNK        -0.2000 
     52 C          30.8161   32.4580    1.5796 C.2       8 UNK         0.4948 
     53 O          32.0167   32.5745    1.3256 O.2       8 UNK        -0.5275 
     54 N          30.2671   31.3139    2.0141 N.am      9 UNK        -0.4246 
     55 CA         31.0072   30.0719    2.2664 C.3       9 UNK         0.0261 
     56 CB         30.0229   28.9656    2.6753 C.3       9 UNK        -0.1959 
     57 C          32.0799   30.1949    3.3616 C.2       9 UNK         0.5033 
     58 O          31.8929   30.9277    4.3366 O.2       9 UNK        -0.5390 
     59 N          33.1383   29.3948    3.2134 N.am      10 UNK        -0.4215 
     60 CA         34.1636   29.1296    4.2139 C.3       10 UNK         0.0240 
     61 CB         35.2834   30.1813    4.1258 C.3       10 UNK        -0.1982 
     62 C          34.6951   27.7197    3.9387 C.2       10 UNK         0.4970 
     63 O          34.7774   27.3286    2.7711 O.2       10 UNK        -0.4916 
     64 N          35.0372   26.9879    5.0032 N.am      11 UNK        -0.4279 
     65 CA         35.5525   25.6091    4.9292 C.3       11 UNK         0.1003 
     66 C          37.1061   25.5177    4.9042 C.2       11 UNK         0.5709 
     67 N          37.8416   26.6217    4.9693 N.am      11 UNK        -0.7358 
     68 O          37.6572   24.4236    4.8081 O.2       11 UNK        -0.4999 
     69 C69        34.9444   24.7008    6.0342 C.3       12 UNK        -0.0954 
     70 S70        33.1192   24.7185    6.1135 S.3       12 UNK        -0.2268 
     71 C71        32.6737   24.0695    4.4733 C.3       12 UNK         0.0203 
     72 H72        34.2616   19.0118   -1.2802 H         1 UNK         0.0888 
     73 H73        34.3618   18.2077    0.2891 H         1 UNK         0.0888 
     74 H74        32.9028   18.0521   -0.6911 H         1 UNK         0.0888 
     75 H75        31.2264   19.3439    0.0396 H         1 UNK         0.3017 
     76 H76        31.6348   21.5035    1.8949 H         1 UNK         0.0873 
     77 H77        29.0496   21.7613    1.5518 H         1 UNK         0.0745 
     78 H78        29.1452   20.3638    0.5214 H         1 UNK         0.0745 
     79 H79        28.9246   20.3208    5.0609 H         1 UNK         0.0705 
     80 H80        27.7288   20.8069    3.8867 H         1 UNK         0.0705 
     81 H81        31.3941   21.6567    4.3876 H         1 UNK         0.1334 
     82 H82        30.6442   25.8802    4.3467 H         1 UNK         0.1417 
     83 H83        27.3794   23.1225    4.0265 H         1 UNK         0.1562 
     84 H84        28.3980   26.7096    4.4650 H         1 UNK         0.0748 
     85 H85        27.1562   25.5829    4.9588 H         1 UNK         0.0748 
     86 H86        25.5668   27.1208    4.0635 H         1 UNK         0.0940 
     87 H87        24.9044   26.9928    2.4586 H         1 UNK         0.0940 
     88 H88        27.2845   28.7756    3.1319 H         1 UNK         0.0703 
     89 H89        26.0847   28.1753    0.6377 H         1 UNK         0.3081 
     90 H90        25.9203   30.2059   -1.1211 H         1 UNK         0.0719 
     91 H91        28.7920   31.2706   -1.0742 H         1 UNK         0.0809 
     92 H92        27.7170   31.3258   -2.4691 H         1 UNK         0.0809 
     93 H93        27.3230   32.2287   -1.0186 H         1 UNK         0.0809 
     94 H94        26.7228   28.3483   -2.0260 H         1 UNK         0.2990 
     95 H95        27.9580   26.3676   -2.1011 H         1 UNK         0.0690 
     96 H96        29.3004   26.3782   -4.2264 H         1 UNK         0.0788 
     97 H97        30.0029   27.9336   -3.7827 H         1 UNK         0.0788 
     98 H98        28.2816   27.8032   -4.1146 H         1 UNK         0.0788 
     99 H99        30.9095   26.6656   -1.8374 H         1 UNK         0.2993 
    100 H100       32.0223   24.8493   -0.8349 H         1 UNK         0.0949 
    101 H101       31.0324   26.0829    1.7940 H         1 UNK         0.0767 
    102 H102       32.7172   25.7620    1.3792 H         1 UNK         0.0767 
    103 H103       31.8093   26.9797    0.4990 H         1 UNK         0.0767 
    104 H104       31.1147   23.6810    1.6569 H         1 UNK         0.3013 
    105 H105       26.7784   30.0299    4.7498 H         1 UNK         0.3121 
    106 H106       25.9643   31.6458    5.9811 H         1 UNK         0.0774 
    107 H107       23.5692   31.8819    6.4199 H         1 UNK         0.0815 
    108 H108       23.1510   31.0024    4.9605 H         1 UNK         0.0815 
    109 H109       23.9490   30.1736    6.2973 H         1 UNK         0.0815 
    110 H110       26.6312   32.0715    3.0020 H         1 UNK         0.2987 
    111 H111       25.7683   34.9288    2.9330 H         1 UNK         0.0949 
    112 H112       25.6151   34.7096    0.4303 H         1 UNK         0.0806 
    113 H113       25.7766   32.9643    0.5861 H         1 UNK         0.0806 
    114 H114       24.3844   33.7852    1.2767 H         1 UNK         0.0806 
    115 H115       28.1040   32.5510    1.5150 H         1 UNK         0.3010 
    116 H116       30.3147   34.4433    2.0517 H         1 UNK         0.0829 
    117 H117       29.4578   35.1673   -0.1709 H         1 UNK         0.0813 
    118 H118       31.0436   34.4390   -0.3337 H         1 UNK         0.0813 
    119 H119       29.6142   33.5250   -0.7890 H         1 UNK         0.0813 
    120 H120       29.2644   31.2651    2.1388 H         1 UNK         0.3038 
    121 H121       31.4899   29.7824    1.3302 H         1 UNK         0.0769 
    122 H122       29.4520   29.2547    3.5573 H         1 UNK         0.0811 
    123 H123       30.5452   28.0426    2.9248 H         1 UNK         0.0811 
    124 H124       29.3304   28.7275    1.8704 H         1 UNK         0.0811 
    125 H125       33.2074   28.7942    2.4001 H         1 UNK         0.3204 
    126 H126       33.7130   29.1525    5.2088 H         1 UNK         0.0748 
    127 H127       36.0572   29.9936    4.8710 H         1 UNK         0.0771 
    128 H128       35.7624   30.1782    3.1457 H         1 UNK         0.0771 
    129 H129       34.8980   31.1853    4.3052 H         1 UNK         0.0771 
    130 H130       34.9490   27.3787    5.9299 H         1 UNK         0.2980 
    131 H131       35.2506   25.1785    3.9737 H         1 UNK         0.0545 
    132 H132       38.8464   26.5461    4.9457 H         1 UNK         0.3459 
    133 H133       37.4046   27.5261    5.0365 H         1 UNK         0.3459 
    134 H134       35.3188   25.0013    7.0143 H         1 UNK         0.0616 
    135 H135       35.2602   23.6652    5.8947 H         1 UNK         0.0616 
    136 H136       32.9599   24.7916    3.7079 H         1 UNK         0.0634 
    137 H137       33.2454   23.1610    4.2767 H         1 UNK         0.0634 
@<TRIPOS>BOND
     1    1    2 1    
     2    1   72 1    
     3    1   73 1    
     4    1   74 1    
     5    2    3 2    
     6    2    4 am   BACKBONE|DICT|INTERRES
     7    4    5 1    
     8    4   75 1    
     9    5    6 1    
    10    5   35 1    
    11    5   76 1    
    12    6    7 1    
    13    6   77 1    
    14    6   78 1    
    15    7    8 1    
    16    8    9 1    
    17    8   79 1    
    18    8   80 1    
    19    9   10 ar   
    20    9   14 ar   
    21   10   11 ar   
    22   10   81 1    
    23   11   12 ar   
    24   11   71 1    
    25   12   13 ar   
    26   12   82 1    
    27   13   14 ar   
    28   13   15 1    
    29   14   83 1    
    30   15   16 1    
    31   15   84 1    
    32   15   85 1    
    33   16   17 1    
    34   17   18 1    
    35   17   86 1    
    36   17   87 1    
    37   18   19 1    
    38   18   37 1    
    39   18   88 1    
    40   19   20 am   BACKBONE|DICT|INTERRES
    41   19   89 1    
    42   20   21 2    
    43   20   22 1    
    44   22   23 1    
    45   22   24 1    
    46   22   90 1    
    47   23   91 1    
    48   23   92 1    
    49   23   93 1    
    50   24   25 am   BACKBONE|DICT|INTERRES
    51   24   94 1    
    52   25   26 2    
    53   25   27 1    
    54   27   28 1    
    55   27   29 1    
    56   27   95 1    
    57   28   96 1    
    58   28   97 1    
    59   28   98 1    
    60   29   30 am   BACKBONE|DICT|INTERRES
    61   29   99 1    
    62   30   31 2    
    63   30   32 1    
    64   32   33 1    
    65   32   34 1    
    66   32  100 1    
    67   33  101 1    
    68   33  102 1    
    69   33  103 1    
    70   34   35 am   BACKBONE|DICT|INTERRES
    71   34  104 1    
    72   35   36 2    
    73   37   38 2    
    74   37   39 am   BACKBONE|DICT|INTERRES
    75   39   40 1    
    76   39  105 1    
    77   40   41 1    
    78   40   42 1    
    79   40  106 1    
    80   41  107 1    
    81   41  108 1    
    82   41  109 1    
    83   42   43 2    
    84   42   44 am   BACKBONE|DICT|INTERRES
    85   44   45 1    
    86   44  110 1    
    87   45   46 1    
    88   45   47 1    
    89   45  111 1    
    90   46  112 1    
    91   46  113 1    
    92   46  114 1    
    93   47   48 2    
    94   47   49 am   BACKBONE|DICT|INTERRES
    95   49   50 1    
    96   49  115 1    
    97   50   51 1    
    98   50   52 1    
    99   50  116 1    
   100   51  117 1    
   101   51  118 1    
   102   51  119 1    
   103   52   53 2    
   104   52   54 am   BACKBONE|DICT|INTERRES
   105   54   55 1    
   106   54  120 1    
   107   55   56 1    
   108   55   57 1    
   109   55  121 1    
   110   56  122 1    
   111   56  123 1    
   112   56  124 1    
   113   57   58 2    
   114   57   59 am   BACKBONE|DICT|INTERRES
   115   59   60 1    
   116   59  125 1    
   117   60   61 1    
   118   60   62 1    
   119   60  126 1    
   120   61  127 1    
   121   61  128 1    
   122   61  129 1    
   123   62   63 2    
   124   62   64 am   BACKBONE|DICT|INTERRES
   125   64   65 1    
   126   64  130 1    
   127   65   66 1    
   128   65   69 1    
   129   65  131 1    
   130   66   67 am   BACKBONE|DICT|INTERRES
   131   66   68 2    
   132   67  132 1    
   133   67  133 1    
   134   69   70 1    
   135   69  134 1    
   136   69  135 1    
   137   70   71 1    
   138   71  136 1    
   139   71  137 1    
@<TRIPOS>SUBSTRUCTURE
     1 UNK         1 GROUP             0       ****    0 ROOT    
