@<TRIPOS>MOLECULE
3R136
137   139    1
SMALL
USER_CHARGES


@<TRIPOS>ATOM
      1 CA         30.6050   23.4888    4.7234 C.3       0 UNK        -0.1979 
      2 C          29.8729   22.2702    4.1947 C.2       0 UNK         0.4864 
      3 O          28.8706   21.8564    4.7783 O.2       0 UNK        -0.5359 
      4 N          30.3709   21.6854    3.0974 N.am      1 UNK        -0.4318 
      5 CA         29.8575   20.4375    2.5244 C.3       1 UNK         0.0824 
      6 C6         30.9344   19.7075    1.6797 C.3       12 UNK        -0.0944 
      7 S7         31.2835   20.3964    0.0244 S.3       12 UNK        -0.2672 
      8 C8         32.5323   21.6918    0.3544 C.3       12 UNK         0.0333 
      9 C9         31.9628   23.1092    0.4470 C.ar      12 UNK        -0.0807 
     10 C10        32.6364   24.0766    1.2047 C.ar      12 UNK        -0.0894 
     11 C11        32.1711   25.3959    1.2568 C.ar      12 UNK        -0.0804 
     12 C12        31.0089   25.7398    0.5639 C.ar      12 UNK        -0.0824 
     13 C13        30.3362   24.7936   -0.2124 C.ar      12 UNK        -0.0762 
     14 C14        30.8198   23.4858   -0.2716 C.ar      12 UNK        -0.0782 
     15 C15        29.0945   25.1906   -0.9945 C.3       12 UNK         0.0230 
     16 S16        29.4778   26.4106   -2.2776 S.3       12 UNK        -0.2608 
     17 C17        27.9792   27.4607   -2.2268 C.3       12 UNK        -0.0989 
     18 CA         28.0731   28.7423   -1.3484 C.3       5 UNK         0.0716 
     19 N          27.8180   28.4728    0.0757 N.am      5 UNK        -0.4135 
     20 C          27.3520   29.3942    0.9298 C.2       4 UNK         0.5031 
     21 O          27.0795   30.5456    0.5844 O.2       4 UNK        -0.5229 
     22 CA         27.1605   28.9834    2.4057 C.3       4 UNK         0.0329 
     23 CB         26.3903   30.0528    3.2049 C.3       4 UNK        -0.2001 
     24 N          26.4789   27.6992    2.5957 N.am      4 UNK        -0.4303 
     25 C          27.0280   26.4854    2.4673 C.2       3 UNK         0.5044 
     26 O          28.1676   26.3121    2.0378 O.2       3 UNK        -0.5152 
     27 CA         26.1877   25.2855    2.9564 C.3       3 UNK         0.0319 
     28 CB         24.6623   25.5041    2.8207 C.3       3 UNK        -0.2001 
     29 N          26.5829   23.9974    2.3686 N.am      3 UNK        -0.4354 
     30 C          26.4724   23.6212    1.0852 C.2       2 UNK         0.4964 
     31 O          26.0606   24.3539    0.1844 O.2       2 UNK        -0.5047 
     32 CA         26.8714   22.1682    0.7726 C.3       2 UNK         0.0288 
     33 CB         26.9085   21.8279   -0.7324 C.3       2 UNK        -0.2113 
     34 N          28.1453   21.8273    1.4068 N.am      2 UNK        -0.4145 
     35 C          28.4982   20.5960    1.8048 C.2       1 UNK         0.5006 
     36 O          27.7877   19.6008    1.6483 O.2       1 UNK        -0.5103 
     37 C          29.3801   29.5346   -1.5896 C.2       5 UNK         0.5055 
     38 O          29.5375   30.1184   -2.6639 O.2       5 UNK        -0.5220 
     39 N          30.3050   29.5075   -0.6213 N.am      6 UNK        -0.4450 
     40 CA         31.6735   29.9992   -0.7393 C.3       6 UNK         0.0367 
     41 CB         32.5291   28.9499   -1.4826 C.3       6 UNK        -0.1929 
     42 C          32.2301   30.3128    0.6569 C.2       6 UNK         0.5070 
     43 O          31.4888   30.2570    1.6432 O.2       6 UNK        -0.5237 
     44 N          33.5289   30.6465    0.7043 N.am      7 UNK        -0.4739 
     45 CA         34.3267   30.9706    1.8964 C.3       7 UNK         0.0276 
     46 CB         34.4823   29.7304    2.8032 C.3       7 UNK        -0.1927 
     47 C          33.7914   32.1959    2.6586 C.2       7 UNK         0.5013 
     48 O          33.7429   32.1818    3.8879 O.2       7 UNK        -0.5193 
     49 N          33.3404   33.2164    1.9117 N.am      8 UNK        -0.4253 
     50 CA         32.6946   34.4433    2.4062 C.3       8 UNK         0.0242 
     51 CB         33.7270   35.3502    3.1101 C.3       8 UNK        -0.2000 
     52 C          31.4529   34.1649    3.2828 C.2       8 UNK         0.4948 
     53 O          31.1874   34.9101    4.2270 O.2       8 UNK        -0.5275 
     54 N          30.7411   33.0732    2.9612 N.am      9 UNK        -0.4246 
     55 CA         29.5891   32.5010    3.6631 C.3       9 UNK         0.0261 
     56 CB         28.4243   33.5103    3.7697 C.3       9 UNK        -0.1959 
     57 C          29.9227   31.8424    5.0172 C.2       9 UNK         0.5033 
     58 O          28.9907   31.4448    5.7184 O.2       9 UNK        -0.5390 
     59 N          31.2116   31.6661    5.3602 N.am      10 UNK        -0.4215 
     60 CA         31.6473   30.9842    6.5896 C.3       10 UNK         0.0240 
     61 CB         33.1596   31.1662    6.7912 C.3       10 UNK        -0.1982 
     62 C          31.2798   29.4894    6.6250 C.2       10 UNK         0.4970 
     63 O          31.1375   28.9304    7.7131 O.2       10 UNK        -0.4916 
     64 N          31.1003   28.8857    5.4434 N.am      11 UNK        -0.4279 
     65 CA         30.5205   27.5489    5.2602 C.3       11 UNK         0.1003 
     66 C          28.9906   27.4671    5.5510 C.2       11 UNK         0.5709 
     67 N          28.2810   28.5647    5.7884 N.am      11 UNK        -0.7358 
     68 O          28.4342   26.3738    5.5914 O.2       11 UNK        -0.4999 
     69 C69        30.8827   26.9793    3.8634 C.3       12 UNK        -0.0954 
     70 S70        32.6330   26.4742    3.7895 S.3       12 UNK        -0.2268 
     71 C71        32.9528   26.4712    2.0010 C.3       12 UNK         0.0203 
     72 H72        31.2983   23.8878    3.9849 H         1 UNK         0.0888 
     73 H73        29.8907   24.2667    4.9849 H         1 UNK         0.0888 
     74 H74        31.1689   23.2309    5.6191 H         1 UNK         0.0888 
     75 H75        31.1769   22.0832    2.6367 H         1 UNK         0.3017 
     76 H76        29.6508   19.7786    3.3713 H         1 UNK         0.0873 
     77 H77        31.8669   19.6333    2.2415 H         1 UNK         0.0745 
     78 H78        30.6179   18.6742    1.5258 H         1 UNK         0.0745 
     79 H79        33.0900   21.4416    1.2580 H         1 UNK         0.0705 
     80 H80        33.2556   21.6771   -0.4618 H         1 UNK         0.0705 
     81 H81        33.5423   23.8128    1.7338 H         1 UNK         0.1334 
     82 H82        30.6394   26.7543    0.6031 H         1 UNK         0.1417 
     83 H83        30.3067   22.7665   -0.8942 H         1 UNK         0.1562 
     84 H84        28.3531   25.5930   -0.3112 H         1 UNK         0.0748 
     85 H85        28.6317   24.3299   -1.4736 H         1 UNK         0.0748 
     86 H86        27.1141   26.8610   -1.9376 H         1 UNK         0.0940 
     87 H87        27.7796   27.7595   -3.2576 H         1 UNK         0.0940 
     88 H88        27.2682   29.3959   -1.6928 H         1 UNK         0.0703 
     89 H89        28.0304   27.5476    0.4347 H         1 UNK         0.3081 
     90 H90        28.1611   28.9059    2.8362 H         1 UNK         0.0719 
     91 H91        26.8938   31.0172    3.1582 H         1 UNK         0.0809 
     92 H92        25.3812   30.1961    2.8164 H         1 UNK         0.0809 
     93 H93        26.3077   29.7891    4.2585 H         1 UNK         0.0809 
     94 H94        25.5249   27.7508    2.9215 H         1 UNK         0.2990 
     95 H95        26.4078   25.1940    4.0210 H         1 UNK         0.0690 
     96 H96        24.1094   24.6127    3.1176 H         1 UNK         0.0788 
     97 H97        24.3753   25.7448    1.7962 H         1 UNK         0.0788 
     98 H98        24.3134   26.3141    3.4619 H         1 UNK         0.0788 
     99 H99        26.9590   23.3266    3.0246 H         1 UNK         0.2993 
    100 H100       26.0856   21.5584    1.2244 H         1 UNK         0.0949 
    101 H101       27.0071   20.7535   -0.8881 H         1 UNK         0.0767 
    102 H102       25.9915   22.1387   -1.2346 H         1 UNK         0.0767 
    103 H103       27.7437   22.3075   -1.2381 H         1 UNK         0.0767 
    104 H104       28.7827   22.5932    1.5782 H         1 UNK         0.3013 
    105 H105       30.0767   29.1120    0.2803 H         1 UNK         0.3121 
    106 H106       31.6695   30.9331   -1.3052 H         1 UNK         0.0774 
    107 H107       32.6015   28.0185   -0.9197 H         1 UNK         0.0815 
    108 H108       33.5436   29.3058   -1.6621 H         1 UNK         0.0815 
    109 H109       32.1053   28.7103   -2.4581 H         1 UNK         0.0815 
    110 H110       34.0367   30.6740   -0.1696 H         1 UNK         0.2987 
    111 H111       35.3216   31.2469    1.5435 H         1 UNK         0.0949 
    112 H112       33.5314   29.4271    3.2422 H         1 UNK         0.0806 
    113 H113       34.8838   28.8816    2.2503 H         1 UNK         0.0806 
    114 H114       35.1680   29.9307    3.6273 H         1 UNK         0.0806 
    115 H115       33.4084   33.1272    0.9071 H         1 UNK         0.3010 
    116 H116       32.3292   34.9773    1.5277 H         1 UNK         0.0829 
    117 H117       34.0934   34.9031    4.0349 H         1 UNK         0.0813 
    118 H118       34.5862   35.5460    2.4688 H         1 UNK         0.0813 
    119 H119       33.2903   36.3161    3.3671 H         1 UNK         0.0813 
    120 H120       31.0857   32.5041    2.1981 H         1 UNK         0.3038 
    121 H121       29.2495   31.6833    3.0257 H         1 UNK         0.0769 
    122 H122       27.5286   33.0400    4.1759 H         1 UNK         0.0811 
    123 H123       28.6650   34.3452    4.4275 H         1 UNK         0.0811 
    124 H124       28.1603   33.9154    2.7929 H         1 UNK         0.0811 
    125 H125       31.9484   31.9959    4.7420 H         1 UNK         0.3204 
    126 H126       31.1361   31.4641    7.4268 H         1 UNK         0.0748 
    127 H127       33.4738   30.7684    7.7570 H         1 UNK         0.0771 
    128 H128       33.7341   30.6444    6.0248 H         1 UNK         0.0771 
    129 H129       33.4423   32.2189    6.7660 H         1 UNK         0.0771 
    130 H130       31.2554   29.4201    4.6019 H         1 UNK         0.2980 
    131 H131       30.9729   26.8953    6.0086 H         1 UNK         0.0545 
    132 H132       28.6996   29.4884    5.7882 H         1 UNK         0.3459 
    133 H133       27.3025   28.4657    6.0009 H         1 UNK         0.3459 
    134 H134       30.2825   26.1042    3.6166 H         1 UNK         0.0616 
    135 H135       30.6752   27.7136    3.0830 H         1 UNK         0.0616 
    136 H136       34.0207   26.3189    1.8391 H         1 UNK         0.0634 
    137 H137       32.7252   27.4587    1.5985 H         1 UNK         0.0634 
@<TRIPOS>BOND
     1    1    2 1    
     2    1   72 1    
     3    1   73 1    
     4    1   74 1    
     5    2    3 2    
     6    2    4 am   BACKBONE|DICT|INTERRES
     7    4    5 1    
     8    4   75 1    
     9    5    6 1    
    10    5   35 1    
    11    5   76 1    
    12    6    7 1    
    13    6   77 1    
    14    6   78 1    
    15    7    8 1    
    16    8    9 1    
    17    8   79 1    
    18    8   80 1    
    19    9   10 ar   
    20    9   14 ar   
    21   10   11 ar   
    22   10   81 1    
    23   11   12 ar   
    24   11   71 1    
    25   12   13 ar   
    26   12   82 1    
    27   13   14 ar   
    28   13   15 1    
    29   14   83 1    
    30   15   16 1    
    31   15   84 1    
    32   15   85 1    
    33   16   17 1    
    34   17   18 1    
    35   17   86 1    
    36   17   87 1    
    37   18   19 1    
    38   18   37 1    
    39   18   88 1    
    40   19   20 am   BACKBONE|DICT|INTERRES
    41   19   89 1    
    42   20   21 2    
    43   20   22 1    
    44   22   23 1    
    45   22   24 1    
    46   22   90 1    
    47   23   91 1    
    48   23   92 1    
    49   23   93 1    
    50   24   25 am   BACKBONE|DICT|INTERRES
    51   24   94 1    
    52   25   26 2    
    53   25   27 1    
    54   27   28 1    
    55   27   29 1    
    56   27   95 1    
    57   28   96 1    
    58   28   97 1    
    59   28   98 1    
    60   29   30 am   BACKBONE|DICT|INTERRES
    61   29   99 1    
    62   30   31 2    
    63   30   32 1    
    64   32   33 1    
    65   32   34 1    
    66   32  100 1    
    67   33  101 1    
    68   33  102 1    
    69   33  103 1    
    70   34   35 am   BACKBONE|DICT|INTERRES
    71   34  104 1    
    72   35   36 2    
    73   37   38 2    
    74   37   39 am   BACKBONE|DICT|INTERRES
    75   39   40 1    
    76   39  105 1    
    77   40   41 1    
    78   40   42 1    
    79   40  106 1    
    80   41  107 1    
    81   41  108 1    
    82   41  109 1    
    83   42   43 2    
    84   42   44 am   BACKBONE|DICT|INTERRES
    85   44   45 1    
    86   44  110 1    
    87   45   46 1    
    88   45   47 1    
    89   45  111 1    
    90   46  112 1    
    91   46  113 1    
    92   46  114 1    
    93   47   48 2    
    94   47   49 am   BACKBONE|DICT|INTERRES
    95   49   50 1    
    96   49  115 1    
    97   50   51 1    
    98   50   52 1    
    99   50  116 1    
   100   51  117 1    
   101   51  118 1    
   102   51  119 1    
   103   52   53 2    
   104   52   54 am   BACKBONE|DICT|INTERRES
   105   54   55 1    
   106   54  120 1    
   107   55   56 1    
   108   55   57 1    
   109   55  121 1    
   110   56  122 1    
   111   56  123 1    
   112   56  124 1    
   113   57   58 2    
   114   57   59 am   BACKBONE|DICT|INTERRES
   115   59   60 1    
   116   59  125 1    
   117   60   61 1    
   118   60   62 1    
   119   60  126 1    
   120   61  127 1    
   121   61  128 1    
   122   61  129 1    
   123   62   63 2    
   124   62   64 am   BACKBONE|DICT|INTERRES
   125   64   65 1    
   126   64  130 1    
   127   65   66 1    
   128   65   69 1    
   129   65  131 1    
   130   66   67 am   BACKBONE|DICT|INTERRES
   131   66   68 2    
   132   67  132 1    
   133   67  133 1    
   134   69   70 1    
   135   69  134 1    
   136   69  135 1    
   137   70   71 1    
   138   71  136 1    
   139   71  137 1    
@<TRIPOS>SUBSTRUCTURE
     1 UNK         1 GROUP             0       ****    0 ROOT    
