@<TRIPOS>MOLECULE
3R136
137   139    1
SMALL
USER_CHARGES


@<TRIPOS>ATOM
      1 CA         28.4356   22.6197   -1.1576 C.3       0 UNK        -0.1979 
      2 C          28.8367   23.3428    0.1185 C.2       0 UNK         0.4864 
      3 O          28.3522   24.4449    0.3872 O.2       0 UNK        -0.5359 
      4 N          29.7140   22.7123    0.9100 N.am      1 UNK        -0.4318 
      5 CA         30.3343   23.2636    2.1220 C.3       1 UNK         0.0824 
      6 C6         31.4657   22.3556    2.6728 C.3       12 UNK        -0.0944 
      7 S7         32.5849   21.6945    1.3881 S.3       12 UNK        -0.2672 
      8 C8         33.9095   22.9429    1.3401 C.3       12 UNK         0.0333 
      9 C9         33.4534   24.2610    0.7272 C.ar      12 UNK        -0.0807 
     10 C10        33.5417   25.4444    1.4671 C.ar      12 UNK        -0.0894 
     11 C11        33.1529   26.6627    0.9024 C.ar      12 UNK        -0.0804 
     12 C12        32.6985   26.6959   -0.4157 C.ar      12 UNK        -0.0824 
     13 C13        32.5645   25.5178   -1.1542 C.ar      12 UNK        -0.0762 
     14 C14        32.9571   24.3033   -0.5820 C.ar      12 UNK        -0.0782 
     15 C15        31.9868   25.5661   -2.5629 C.3       12 UNK         0.0230 
     16 S16        30.1616   25.5370   -2.5559 S.3       12 UNK        -0.2608 
     17 C17        29.7793   27.1297   -1.7528 C.3       12 UNK        -0.0989 
     18 CA         28.3149   27.5959   -1.9427 C.3       5 UNK         0.0716 
     19 N          27.3753   26.6779   -1.2867 N.am      5 UNK        -0.4135 
     20 C          26.0669   26.5669   -1.5551 C.2       4 UNK         0.5031 
     21 O          25.5128   27.1186   -2.5057 O.2       4 UNK        -0.5229 
     22 CA         25.2170   25.7875   -0.5352 C.3       4 UNK         0.0329 
     23 CB         25.0216   24.3249   -0.9577 C.3       4 UNK        -0.2001 
     24 N          25.7922   25.8510    0.8138 N.am      4 UNK        -0.4303 
     25 C          25.7261   26.9308    1.6065 C.2       3 UNK         0.5044 
     26 O          25.1125   27.9507    1.2886 O.2       3 UNK        -0.5152 
     27 CA         26.5077   26.9108    2.9376 C.3       3 UNK         0.0319 
     28 CB         25.7505   27.6336    4.0703 C.3       3 UNK        -0.2001 
     29 N          26.9629   25.5868    3.3795 N.am      3 UNK        -0.4354 
     30 C          26.2270   24.5130    3.7012 C.2       2 UNK         0.4964 
     31 O          24.9961   24.4908    3.6591 O.2       2 UNK        -0.5047 
     32 CA         27.0080   23.2442    4.1148 C.3       2 UNK         0.0288 
     33 CB         26.1125   21.9921    4.1786 C.3       2 UNK        -0.2113 
     34 N          28.1392   22.9677    3.2218 N.am      2 UNK        -0.4145 
     35 C          29.3243   23.5960    3.2421 C.2       1 UNK         0.5006 
     36 O          29.6129   24.4452    4.0847 O.2       1 UNK        -0.5103 
     37 C          28.1561   29.0676   -1.4699 C.2       5 UNK         0.5055 
     38 O          28.9775   29.9008   -1.8567 O.2       5 UNK        -0.5220 
     39 N          27.1316   29.3686   -0.6552 N.am      6 UNK        -0.4450 
     40 CA         26.8590   30.6316    0.0394 C.3       6 UNK         0.0367 
     41 CB         26.8331   31.8432   -0.9215 C.3       6 UNK        -0.1929 
     42 C          27.7760   30.8203    1.2629 C.2       6 UNK         0.5070 
     43 O          28.3784   29.8552    1.7393 O.2       6 UNK        -0.5237 
     44 N          27.8026   32.0445    1.8021 N.am      7 UNK        -0.4739 
     45 CA         28.5301   32.3942    3.0198 C.3       7 UNK         0.0276 
     46 CB         27.8479   33.6027    3.6826 C.3       7 UNK        -0.1927 
     47 C          30.0073   32.7029    2.7341 C.2       7 UNK         0.5013 
     48 O          30.3021   33.4967    1.8375 O.2       7 UNK        -0.5193 
     49 N          30.8893   32.1290    3.5561 N.am      8 UNK        -0.4253 
     50 CA         32.3142   32.4239    3.6841 C.3       8 UNK         0.0242 
     51 CB         33.1150   31.9204    2.4671 C.3       8 UNK        -0.2000 
     52 C          32.7885   31.7605    4.9845 C.2       8 UNK         0.4948 
     53 O          32.0435   30.9697    5.5698 O.2       8 UNK        -0.5275 
     54 N          34.0184   32.0712    5.4141 N.am      9 UNK        -0.4246 
     55 CA         34.6041   31.6282    6.6887 C.3       9 UNK         0.0261 
     56 CB         36.0019   32.2500    6.8443 C.3       9 UNK        -0.1959 
     57 C          34.6738   30.1011    6.8953 C.2       9 UNK         0.5033 
     58 O          34.6394   29.6519    8.0419 O.2       9 UNK        -0.5390 
     59 N          34.7657   29.3395    5.7978 N.am      10 UNK        -0.4215 
     60 CA         34.8107   27.8748    5.7914 C.3       10 UNK         0.0240 
     61 CB         35.9385   27.4234    4.8434 C.3       10 UNK        -0.1982 
     62 C          33.4634   27.2246    5.4139 C.2       10 UNK         0.4970 
     63 O          33.4267   26.0026    5.2622 O.2       10 UNK        -0.4916 
     64 N          32.3953   28.0158    5.2480 N.am      11 UNK        -0.4279 
     65 CA         31.0677   27.5489    4.8284 C.3       11 UNK         0.1003 
     66 C          29.9540   28.4624    5.4013 C.2       11 UNK         0.5709 
     67 N          29.0962   29.0586    4.5838 N.am      11 UNK        -0.7358 
     68 O          29.8281   28.5908    6.6173 O.2       11 UNK        -0.4999 
     69 C69        30.9754   27.2053    3.3124 C.3       12 UNK        -0.0954 
     70 S70        31.5345   28.5216    2.1805 S.3       12 UNK        -0.2268 
     71 C71        33.2006   27.9479    1.7129 C.3       12 UNK         0.0203 
     72 H72        29.2535   22.0083   -1.5384 H         1 UNK         0.0888 
     73 H73        27.5783   21.9730   -0.9745 H         1 UNK         0.0888 
     74 H74        28.1684   23.3359   -1.9339 H         1 UNK         0.0888 
     75 H75        30.0791   21.8147    0.6233 H         1 UNK         0.3017 
     76 H76        30.7833   24.2141    1.8261 H         1 UNK         0.0873 
     77 H77        32.0542   22.8950    3.4179 H         1 UNK         0.0745 
     78 H78        31.0409   21.4942    3.1924 H         1 UNK         0.0745 
     79 H79        34.7360   22.5509    0.7462 H         1 UNK         0.0705 
     80 H80        34.3007   23.0898    2.3482 H         1 UNK         0.0705 
     81 H81        33.9034   25.4183    2.4865 H         1 UNK         0.1334 
     82 H82        32.4093   27.6428   -0.8493 H         1 UNK         0.1417 
     83 H83        32.8684   23.3873   -1.1502 H         1 UNK         0.1562 
     84 H84        32.3481   24.7163   -3.1440 H         1 UNK         0.0748 
     85 H85        32.3367   26.4590   -3.0834 H         1 UNK         0.0748 
     86 H86        30.4714   27.8666   -2.1644 H         1 UNK         0.0940 
     87 H87        30.0042   27.0496   -0.6873 H         1 UNK         0.0940 
     88 H88        28.0972   27.5947   -3.0127 H         1 UNK         0.0703 
     89 H89        27.7584   26.1094   -0.5362 H         1 UNK         0.3081 
     90 H90        24.2305   26.2557   -0.5092 H         1 UNK         0.0719 
     91 H91        25.9638   23.7845   -0.9879 H         1 UNK         0.0809 
     92 H92        24.3569   23.8007   -0.2709 H         1 UNK         0.0809 
     93 H93        24.5770   24.2624   -1.9519 H         1 UNK         0.0809 
     94 H94        26.3920   25.0841    1.0930 H         1 UNK         0.2990 
     95 H95        27.4179   27.4786    2.7427 H         1 UNK         0.0690 
     96 H96        26.3332   27.6446    4.9914 H         1 UNK         0.0788 
     97 H97        24.7921   27.1592    4.2829 H         1 UNK         0.0788 
     98 H98        25.5490   28.6726    3.8062 H         1 UNK         0.0788 
     99 H99        27.9680   25.4781    3.4630 H         1 UNK         0.2993 
    100 H100       27.3944   23.4276    5.1199 H         1 UNK         0.0949 
    101 H101       25.6688   21.7638    3.2086 H         1 UNK         0.0767 
    102 H102       26.6758   21.1176    4.5052 H         1 UNK         0.0767 
    103 H103       25.2953   22.1297    4.8881 H         1 UNK         0.0767 
    104 H104       27.9733   22.3075    2.4763 H         1 UNK         0.3013 
    105 H105       26.5295   28.6100   -0.3646 H         1 UNK         0.3121 
    106 H106       25.8513   30.5202    0.4424 H         1 UNK         0.0774 
    107 H107       26.3471   32.7036   -0.4610 H         1 UNK         0.0815 
    108 H108       27.8369   32.1547   -1.2127 H         1 UNK         0.0815 
    109 H109       26.2767   31.6158   -1.8307 H         1 UNK         0.0815 
    110 H110       27.3160   32.7955    1.3351 H         1 UNK         0.2987 
    111 H111       28.4683   31.5578    3.7173 H         1 UNK         0.0949 
    112 H112       27.8593   34.4803    3.0347 H         1 UNK         0.0806 
    113 H113       26.8100   33.3843    3.9346 H         1 UNK         0.0806 
    114 H114       28.3543   33.8762    4.6094 H         1 UNK         0.0806 
    115 H115       30.5671   31.4858    4.2720 H         1 UNK         0.3010 
    116 H116       32.4329   33.5049    3.7815 H         1 UNK         0.0829 
    117 H117       32.7019   32.2858    1.5273 H         1 UNK         0.0813 
    118 H118       34.1500   32.2603    2.5123 H         1 UNK         0.0813 
    119 H119       33.1369   30.8341    2.4210 H         1 UNK         0.0813 
    120 H120       34.5705   32.7186    4.8692 H         1 UNK         0.3038 
    121 H121       33.9685   32.0233    7.4841 H         1 UNK         0.0769 
    122 H122       36.6780   31.9269    6.0518 H         1 UNK         0.0811 
    123 H123       36.4541   31.9627    7.7949 H         1 UNK         0.0811 
    124 H124       35.9579   33.3391    6.8272 H         1 UNK         0.0811 
    125 H125       34.7815   29.8005    4.8996 H         1 UNK         0.3204 
    126 H126       35.0565   27.5057    6.7892 H         1 UNK         0.0748 
    127 H127       36.0195   26.3360    4.8109 H         1 UNK         0.0771 
    128 H128       35.7802   27.7702    3.8227 H         1 UNK         0.0771 
    129 H129       36.9045   27.8039    5.1759 H         1 UNK         0.0771 
    130 H130       32.4549   29.0112    5.4411 H         1 UNK         0.2980 
    131 H131       30.8909   26.6060    5.3498 H         1 UNK         0.0545 
    132 H132       29.1871   28.9962    3.5763 H         1 UNK         0.3459 
    133 H133       28.3520   29.6023    4.9867 H         1 UNK         0.3459 
    134 H134       29.9525   26.9427    3.0403 H         1 UNK         0.0616 
    135 H135       31.5516   26.3014    3.1239 H         1 UNK         0.0616 
    136 H136       33.8029   27.8188    2.6095 H         1 UNK         0.0634 
    137 H137       33.6891   28.7260    1.1250 H         1 UNK         0.0634 
@<TRIPOS>BOND
     1    1    2 1    
     2    1   72 1    
     3    1   73 1    
     4    1   74 1    
     5    2    3 2    
     6    2    4 am   BACKBONE|DICT|INTERRES
     7    4    5 1    
     8    4   75 1    
     9    5    6 1    
    10    5   35 1    
    11    5   76 1    
    12    6    7 1    
    13    6   77 1    
    14    6   78 1    
    15    7    8 1    
    16    8    9 1    
    17    8   79 1    
    18    8   80 1    
    19    9   10 ar   
    20    9   14 ar   
    21   10   11 ar   
    22   10   81 1    
    23   11   12 ar   
    24   11   71 1    
    25   12   13 ar   
    26   12   82 1    
    27   13   14 ar   
    28   13   15 1    
    29   14   83 1    
    30   15   16 1    
    31   15   84 1    
    32   15   85 1    
    33   16   17 1    
    34   17   18 1    
    35   17   86 1    
    36   17   87 1    
    37   18   19 1    
    38   18   37 1    
    39   18   88 1    
    40   19   20 am   BACKBONE|DICT|INTERRES
    41   19   89 1    
    42   20   21 2    
    43   20   22 1    
    44   22   23 1    
    45   22   24 1    
    46   22   90 1    
    47   23   91 1    
    48   23   92 1    
    49   23   93 1    
    50   24   25 am   BACKBONE|DICT|INTERRES
    51   24   94 1    
    52   25   26 2    
    53   25   27 1    
    54   27   28 1    
    55   27   29 1    
    56   27   95 1    
    57   28   96 1    
    58   28   97 1    
    59   28   98 1    
    60   29   30 am   BACKBONE|DICT|INTERRES
    61   29   99 1    
    62   30   31 2    
    63   30   32 1    
    64   32   33 1    
    65   32   34 1    
    66   32  100 1    
    67   33  101 1    
    68   33  102 1    
    69   33  103 1    
    70   34   35 am   BACKBONE|DICT|INTERRES
    71   34  104 1    
    72   35   36 2    
    73   37   38 2    
    74   37   39 am   BACKBONE|DICT|INTERRES
    75   39   40 1    
    76   39  105 1    
    77   40   41 1    
    78   40   42 1    
    79   40  106 1    
    80   41  107 1    
    81   41  108 1    
    82   41  109 1    
    83   42   43 2    
    84   42   44 am   BACKBONE|DICT|INTERRES
    85   44   45 1    
    86   44  110 1    
    87   45   46 1    
    88   45   47 1    
    89   45  111 1    
    90   46  112 1    
    91   46  113 1    
    92   46  114 1    
    93   47   48 2    
    94   47   49 am   BACKBONE|DICT|INTERRES
    95   49   50 1    
    96   49  115 1    
    97   50   51 1    
    98   50   52 1    
    99   50  116 1    
   100   51  117 1    
   101   51  118 1    
   102   51  119 1    
   103   52   53 2    
   104   52   54 am   BACKBONE|DICT|INTERRES
   105   54   55 1    
   106   54  120 1    
   107   55   56 1    
   108   55   57 1    
   109   55  121 1    
   110   56  122 1    
   111   56  123 1    
   112   56  124 1    
   113   57   58 2    
   114   57   59 am   BACKBONE|DICT|INTERRES
   115   59   60 1    
   116   59  125 1    
   117   60   61 1    
   118   60   62 1    
   119   60  126 1    
   120   61  127 1    
   121   61  128 1    
   122   61  129 1    
   123   62   63 2    
   124   62   64 am   BACKBONE|DICT|INTERRES
   125   64   65 1    
   126   64  130 1    
   127   65   66 1    
   128   65   69 1    
   129   65  131 1    
   130   66   67 am   BACKBONE|DICT|INTERRES
   131   66   68 2    
   132   67  132 1    
   133   67  133 1    
   134   69   70 1    
   135   69  134 1    
   136   69  135 1    
   137   70   71 1    
   138   71  136 1    
   139   71  137 1    
@<TRIPOS>SUBSTRUCTURE
     1 UNK         1 GROUP             0       ****    0 ROOT    
