@<TRIPOS>MOLECULE
3R136
137   139    1
SMALL
USER_CHARGES


@<TRIPOS>ATOM
      1 CA         34.3172   23.4191   -1.1070 C.3       0 UNK        -0.1979 
      2 C          32.9111   24.0008   -1.1040 C.2       0 UNK         0.4864 
      3 O          32.6356   24.9351   -1.8583 O.2       0 UNK        -0.5359 
      4 N          32.0259   23.4616   -0.2555 N.am      1 UNK        -0.4318 
      5 CA         30.6183   23.8584   -0.1594 C.3       1 UNK         0.0824 
      6 C6         30.0369   23.5311    1.2410 C.3       12 UNK        -0.0944 
      7 S7         28.6594   24.6383    1.6946 S.3       12 UNK        -0.2672 
      8 C8         28.1552   23.9175    3.2884 C.3       12 UNK         0.0333 
      9 C9         28.5463   24.8281    4.4406 C.ar      12 UNK        -0.0807 
     10 C10        29.8248   24.7662    5.0007 C.ar      12 UNK        -0.0894 
     11 C11        30.1830   25.6276    6.0428 C.ar      12 UNK        -0.0804 
     12 C12        29.2584   26.5723    6.5026 C.ar      12 UNK        -0.0824 
     13 C13        27.9760   26.6497    5.9471 C.ar      12 UNK        -0.0762 
     14 C14        27.6205   25.7455    4.9404 C.ar      12 UNK        -0.0782 
     15 C15        26.9940   27.6995    6.4715 C.3       12 UNK         0.0230 
     16 S16        25.7328   28.2623    5.2682 S.3       12 UNK        -0.2608 
     17 C17        26.7495   29.0438    3.9681 C.3       12 UNK        -0.0989 
     18 CA         26.7454   28.2504    2.6311 C.3       5 UNK         0.0716 
     19 N          25.4259   28.1757    2.0087 N.am      5 UNK        -0.4135 
     20 C          24.6829   27.0683    1.9020 C.2       4 UNK         0.5031 
     21 O          24.9791   25.9864    2.4120 O.2       4 UNK        -0.5229 
     22 CA         23.3921   27.1608    1.0610 C.3       4 UNK         0.0329 
     23 CB         23.0845   28.5738    0.5112 C.3       4 UNK        -0.2001 
     24 N          23.3900   26.1786   -0.0313 N.am      4 UNK        -0.4303 
     25 C          24.3233   26.0392   -0.9847 C.2       3 UNK         0.5044 
     26 O          25.3194   26.7604   -1.0936 O.2       3 UNK        -0.5152 
     27 CA         24.0782   24.9230   -2.0156 C.3       3 UNK         0.0319 
     28 CB         23.2391   25.4525   -3.1899 C.3       3 UNK        -0.2001 
     29 N          25.3422   24.3968   -2.5336 N.am      3 UNK        -0.4354 
     30 C          26.1842   23.6283   -1.8315 C.2       2 UNK         0.4964 
     31 O          25.9176   23.1651   -0.7212 O.2       2 UNK        -0.5047 
     32 CA         27.5639   23.3422   -2.4425 C.3       2 UNK         0.0288 
     33 CB         27.8351   24.0429   -3.7931 C.3       2 UNK        -0.2113 
     34 N          28.5578   23.7535   -1.4587 N.am      2 UNK        -0.4145 
     35 C          29.7795   23.2389   -1.3010 C.2       1 UNK         0.5006 
     36 O          30.2314   22.3196   -1.9905 O.2       1 UNK        -0.5103 
     37 C          27.7194   28.8304    1.5956 C.2       5 UNK         0.5055 
     38 O          28.3021   29.8900    1.8226 O.2       5 UNK        -0.5220 
     39 N          27.8974   28.1270    0.4674 N.am      6 UNK        -0.4450 
     40 CA         28.8563   28.4855   -0.5885 C.3       6 UNK         0.0367 
     41 CB         28.7193   27.5039   -1.7626 C.3       6 UNK        -0.1929 
     42 C          30.3218   28.5471   -0.1089 C.2       6 UNK         0.5070 
     43 O          31.1181   29.2865   -0.6866 O.2       6 UNK        -0.5237 
     44 N          30.6412   27.8000    0.9566 N.am      7 UNK        -0.4739 
     45 CA         31.9445   27.7904    1.6208 C.3       7 UNK         0.0276 
     46 CB         32.1387   26.4331    2.3137 C.3       7 UNK        -0.1927 
     47 C          32.1585   28.9468    2.6172 C.2       7 UNK         0.5013 
     48 O          33.2203   28.9820    3.2398 O.2       7 UNK        -0.5193 
     49 N          31.1986   29.8784    2.7646 N.am      8 UNK        -0.4253 
     50 CA         31.2418   31.0110    3.7082 C.3       8 UNK         0.0242 
     51 CB         29.9776   31.8720    3.5625 C.3       8 UNK        -0.2000 
     52 C          32.4961   31.9018    3.6330 C.2       8 UNK         0.4948 
     53 O          32.8652   32.4937    4.6469 O.2       8 UNK        -0.5275 
     54 N          33.1598   31.9445    2.4689 N.am      9 UNK        -0.4246 
     55 CA         34.4645   32.5853    2.2742 C.3       9 UNK         0.0261 
     56 CB         34.8317   32.5385    0.7822 C.3       9 UNK        -0.1959 
     57 C          35.5953   31.9711    3.1267 C.2       9 UNK         0.5033 
     58 O          36.5469   32.6826    3.4528 O.2       9 UNK        -0.5390 
     59 N          35.4715   30.6830    3.4755 N.am      10 UNK        -0.4215 
     60 CA         36.3678   29.9632    4.3792 C.3       10 UNK         0.0240 
     61 CB         36.7477   28.6122    3.7492 C.3       10 UNK        -0.1982 
     62 C          35.7105   29.7492    5.7516 C.2       10 UNK         0.4970 
     63 O          36.3817   29.9262    6.7690 O.2       10 UNK        -0.4916 
     64 N          34.4271   29.3622    5.7610 N.am      11 UNK        -0.4279 
     65 CA         33.6541   29.0544    6.9752 C.3       11 UNK         0.1003 
     66 C          33.3043   30.2837    7.8613 C.2       11 UNK         0.5709 
     67 N          33.2802   31.5048    7.3423 N.am      11 UNK        -0.7358 
     68 O          33.0582   30.1236    9.0545 O.2       11 UNK        -0.4999 
     69 C69        32.3834   28.2234    6.6559 C.3       12 UNK        -0.0954 
     70 S70        32.7779   26.6129    5.8962 S.3       12 UNK        -0.2268 
     71 C71        31.5598   25.5153    6.6848 C.3       12 UNK         0.0203 
     72 H72        34.4259   22.6102   -0.3847 H         1 UNK         0.0888 
     73 H73        34.5580   23.0265   -2.0946 H         1 UNK         0.0888 
     74 H74        35.0437   24.1932   -0.8607 H         1 UNK         0.0888 
     75 H75        32.2984   22.6678    0.3062 H         1 UNK         0.3017 
     76 H76        30.5877   24.9423   -0.2934 H         1 UNK         0.0873 
     77 H77        29.7119   22.4902    1.3019 H         1 UNK         0.0745 
     78 H78        30.8026   23.6500    2.0092 H         1 UNK         0.0745 
     79 H79        27.0740   23.7697    3.2748 H         1 UNK         0.0705 
     80 H80        28.5937   22.9280    3.4249 H         1 UNK         0.0705 
     81 H81        30.5408   24.0480    4.6252 H         1 UNK         0.1334 
     82 H82        29.5363   27.2449    7.3022 H         1 UNK         0.1417 
     83 H83        26.6252   25.7682    4.5183 H         1 UNK         0.1562 
     84 H84        27.5391   28.5750    6.8282 H         1 UNK         0.0748 
     85 H85        26.4797   27.2835    7.3386 H         1 UNK         0.0748 
     86 H86        27.7698   29.1508    4.3419 H         1 UNK         0.0940 
     87 H87        26.3803   30.0589    3.8107 H         1 UNK         0.0940 
     88 H88        27.1201   27.2469    2.8258 H         1 UNK         0.0703 
     89 H89        25.1167   29.0097    1.5303 H         1 UNK         0.3081 
     90 H90        22.5767   26.8830    1.7305 H         1 UNK         0.0719 
     91 H91        23.8524   28.9267   -0.1785 H         1 UNK         0.0809 
     92 H92        22.1368   28.5816   -0.0276 H         1 UNK         0.0809 
     93 H93        22.9928   29.3031    1.3172 H         1 UNK         0.0809 
     94 H94        22.6250   25.5185   -0.0170 H         1 UNK         0.2990 
     95 H95        23.5336   24.1080   -1.5337 H         1 UNK         0.0690 
     96 H96        23.0388   24.6686   -3.9206 H         1 UNK         0.0788 
     97 H97        23.7396   26.2734   -3.7056 H         1 UNK         0.0788 
     98 H98        22.2740   25.8260   -2.8447 H         1 UNK         0.0788 
     99 H99        25.6571   24.7688   -3.4175 H         1 UNK         0.2993 
    100 H100       27.6259   22.2613   -2.5867 H         1 UNK         0.0949 
    101 H101       28.8242   23.7868   -4.1736 H         1 UNK         0.0767 
    102 H102       27.1169   23.7333   -4.5534 H         1 UNK         0.0767 
    103 H103       27.7909   25.1294   -3.7058 H         1 UNK         0.0767 
    104 H104       28.2229   24.4059   -0.7608 H         1 UNK         0.3013 
    105 H105       27.3295   27.3042    0.3106 H         1 UNK         0.3121 
    106 H106       28.5912   29.4830   -0.9454 H         1 UNK         0.0774 
    107 H107       28.9623   26.4859   -1.4642 H         1 UNK         0.0815 
    108 H108       29.3940   27.7727   -2.5766 H         1 UNK         0.0815 
    109 H109       27.7080   27.5057   -2.1693 H         1 UNK         0.0815 
    110 H110       29.9207   27.2248    1.3697 H         1 UNK         0.2987 
    111 H111       32.7238   27.8893    0.8619 H         1 UNK         0.0949 
    112 H112       31.3590   26.2412    3.0511 H         1 UNK         0.0806 
    113 H113       32.1329   25.6207    1.5910 H         1 UNK         0.0806 
    114 H114       33.0977   26.3837    2.8310 H         1 UNK         0.0806 
    115 H115       30.3440   29.7838    2.2257 H         1 UNK         0.3010 
    116 H116       31.2323   30.5864    4.7122 H         1 UNK         0.0829 
    117 H117       29.0873   31.3202    3.8621 H         1 UNK         0.0813 
    118 H118       30.0258   32.7581    4.1975 H         1 UNK         0.0813 
    119 H119       29.8363   32.2120    2.5359 H         1 UNK         0.0813 
    120 H120       32.7792   31.4333    1.6855 H         1 UNK         0.3038 
    121 H121       34.3653   33.6315    2.5711 H         1 UNK         0.0769 
    122 H122       34.9202   31.5134    0.4199 H         1 UNK         0.0811 
    123 H123       35.7875   33.0319    0.6003 H         1 UNK         0.0811 
    124 H124       34.0854   33.0482    0.1725 H         1 UNK         0.0811 
    125 H125       34.6357   30.1784    3.1887 H         1 UNK         0.3204 
    126 H126       37.2867   30.5322    4.5352 H         1 UNK         0.0748 
    127 H127       37.4171   28.0512    4.4027 H         1 UNK         0.0771 
    128 H128       35.8717   27.9883    3.5650 H         1 UNK         0.0771 
    129 H129       37.2635   28.7517    2.7991 H         1 UNK         0.0771 
    130 H130       33.9512   29.1953    4.8778 H         1 UNK         0.2980 
    131 H131       34.2939   28.4255    7.5977 H         1 UNK         0.0545 
    132 H132       33.0592   32.2820    7.9432 H         1 UNK         0.3459 
    133 H133       33.4077   31.6673    6.3495 H         1 UNK         0.3459 
    134 H134       31.8153   28.0461    7.5704 H         1 UNK         0.0616 
    135 H135       31.7188   28.7653    5.9839 H         1 UNK         0.0616 
    136 H136       31.9197   24.4888    6.6011 H         1 UNK         0.0634 
    137 H137       31.5027   25.7244    7.7540 H         1 UNK         0.0634 
@<TRIPOS>BOND
     1    1    2 1    
     2    1   72 1    
     3    1   73 1    
     4    1   74 1    
     5    2    3 2    
     6    2    4 am   BACKBONE|DICT|INTERRES
     7    4    5 1    
     8    4   75 1    
     9    5    6 1    
    10    5   35 1    
    11    5   76 1    
    12    6    7 1    
    13    6   77 1    
    14    6   78 1    
    15    7    8 1    
    16    8    9 1    
    17    8   79 1    
    18    8   80 1    
    19    9   10 ar   
    20    9   14 ar   
    21   10   11 ar   
    22   10   81 1    
    23   11   12 ar   
    24   11   71 1    
    25   12   13 ar   
    26   12   82 1    
    27   13   14 ar   
    28   13   15 1    
    29   14   83 1    
    30   15   16 1    
    31   15   84 1    
    32   15   85 1    
    33   16   17 1    
    34   17   18 1    
    35   17   86 1    
    36   17   87 1    
    37   18   19 1    
    38   18   37 1    
    39   18   88 1    
    40   19   20 am   BACKBONE|DICT|INTERRES
    41   19   89 1    
    42   20   21 2    
    43   20   22 1    
    44   22   23 1    
    45   22   24 1    
    46   22   90 1    
    47   23   91 1    
    48   23   92 1    
    49   23   93 1    
    50   24   25 am   BACKBONE|DICT|INTERRES
    51   24   94 1    
    52   25   26 2    
    53   25   27 1    
    54   27   28 1    
    55   27   29 1    
    56   27   95 1    
    57   28   96 1    
    58   28   97 1    
    59   28   98 1    
    60   29   30 am   BACKBONE|DICT|INTERRES
    61   29   99 1    
    62   30   31 2    
    63   30   32 1    
    64   32   33 1    
    65   32   34 1    
    66   32  100 1    
    67   33  101 1    
    68   33  102 1    
    69   33  103 1    
    70   34   35 am   BACKBONE|DICT|INTERRES
    71   34  104 1    
    72   35   36 2    
    73   37   38 2    
    74   37   39 am   BACKBONE|DICT|INTERRES
    75   39   40 1    
    76   39  105 1    
    77   40   41 1    
    78   40   42 1    
    79   40  106 1    
    80   41  107 1    
    81   41  108 1    
    82   41  109 1    
    83   42   43 2    
    84   42   44 am   BACKBONE|DICT|INTERRES
    85   44   45 1    
    86   44  110 1    
    87   45   46 1    
    88   45   47 1    
    89   45  111 1    
    90   46  112 1    
    91   46  113 1    
    92   46  114 1    
    93   47   48 2    
    94   47   49 am   BACKBONE|DICT|INTERRES
    95   49   50 1    
    96   49  115 1    
    97   50   51 1    
    98   50   52 1    
    99   50  116 1    
   100   51  117 1    
   101   51  118 1    
   102   51  119 1    
   103   52   53 2    
   104   52   54 am   BACKBONE|DICT|INTERRES
   105   54   55 1    
   106   54  120 1    
   107   55   56 1    
   108   55   57 1    
   109   55  121 1    
   110   56  122 1    
   111   56  123 1    
   112   56  124 1    
   113   57   58 2    
   114   57   59 am   BACKBONE|DICT|INTERRES
   115   59   60 1    
   116   59  125 1    
   117   60   61 1    
   118   60   62 1    
   119   60  126 1    
   120   61  127 1    
   121   61  128 1    
   122   61  129 1    
   123   62   63 2    
   124   62   64 am   BACKBONE|DICT|INTERRES
   125   64   65 1    
   126   64  130 1    
   127   65   66 1    
   128   65   69 1    
   129   65  131 1    
   130   66   67 am   BACKBONE|DICT|INTERRES
   131   66   68 2    
   132   67  132 1    
   133   67  133 1    
   134   69   70 1    
   135   69  134 1    
   136   69  135 1    
   137   70   71 1    
   138   71  136 1    
   139   71  137 1    
@<TRIPOS>SUBSTRUCTURE
     1 UNK         1 GROUP             0       ****    0 ROOT    
