@<TRIPOS>MOLECULE
3R136
137   139    1
SMALL
USER_CHARGES


@<TRIPOS>ATOM
      1 CA         33.8454   27.5017   -3.6193 C.3       0 UNK        -0.1979 
      2 C          32.5060   27.2790   -2.9343 C.2       0 UNK         0.4864 
      3 O          31.6795   28.1912   -2.8915 O.2       0 UNK        -0.5359 
      4 N          32.2709   26.0680   -2.4101 N.am      1 UNK        -0.4318 
      5 CA         31.0589   25.6652   -1.6837 C.3       1 UNK         0.0824 
      6 C6         31.3551   24.4707   -0.7374 C.3       12 UNK        -0.0944 
      7 S7         30.3496   24.5277    0.7803 S.3       12 UNK        -0.2672 
      8 C8         31.2895   23.3682    1.8204 C.3       12 UNK         0.0333 
      9 C9         30.8637   23.4740    3.2744 C.ar      12 UNK        -0.0807 
     10 C10        31.6306   24.2112    4.1809 C.ar      12 UNK        -0.0894 
     11 C11        31.2371   24.3372    5.5203 C.ar      12 UNK        -0.0804 
     12 C12        30.0677   23.6908    5.9407 C.ar      12 UNK        -0.0824 
     13 C13        29.2970   22.9409    5.0438 C.ar      12 UNK        -0.0762 
     14 C14        29.7033   22.8343    3.7123 C.ar      12 UNK        -0.0782 
     15 C15        28.0221   22.2439    5.5032 C.3       12 UNK         0.0230 
     16 S16        26.5253   23.0153    4.7999 S.3       12 UNK        -0.2608 
     17 C17        26.6413   24.6933    5.4968 C.3       12 UNK        -0.0989 
     18 CA         27.1284   25.7196    4.4431 C.3       5 UNK         0.0716 
     19 N          26.0731   26.0528    3.4813 N.am      5 UNK        -0.4135 
     20 C          26.1427   26.9549    2.4909 C.2       4 UNK         0.5031 
     21 O          27.1374   27.6380    2.2236 O.2       4 UNK        -0.5229 
     22 CA         24.8331   27.1630    1.7102 C.3       4 UNK         0.0329 
     23 CB         23.9878   28.2611    2.3769 C.3       4 UNK        -0.2001 
     24 N          25.0305   27.5108    0.3019 N.am      4 UNK        -0.4303 
     25 C          25.6028   26.7288   -0.6228 C.2       3 UNK         0.5044 
     26 O          26.0821   25.6192   -0.3831 O.2       3 UNK        -0.5152 
     27 CA         25.5996   27.2436   -2.0719 C.3       3 UNK         0.0319 
     28 CB         25.2452   28.7393   -2.2339 C.3       3 UNK        -0.2001 
     29 N          26.8902   26.9632   -2.6975 N.am      3 UNK        -0.4354 
     30 C          27.0660   26.6326   -3.9825 C.2       2 UNK         0.4964 
     31 O          26.1390   26.5137   -4.7855 O.2       2 UNK        -0.5047 
     32 CA         28.5073   26.4211   -4.4831 C.3       2 UNK         0.0288 
     33 CB         28.8742   27.4856   -5.5320 C.3       2 UNK        -0.2113 
     34 N          29.5215   26.4509   -3.4265 N.am      2 UNK        -0.4145 
     35 C          29.8663   25.4213   -2.6437 C.2       1 UNK         0.5006 
     36 O          29.3104   24.3227   -2.6946 O.2       1 UNK        -0.5103 
     37 C          27.6681   26.9694    5.1561 C.2       5 UNK         0.5055 
     38 O          26.8838   27.8279    5.5690 O.2       5 UNK        -0.5220 
     39 N          28.9992   27.0324    5.2811 N.am      6 UNK        -0.4450 
     40 CA         29.8143   28.1123    5.8460 C.3       6 UNK         0.0367 
     41 CB         29.4916   28.3700    7.3299 C.3       6 UNK        -0.1929 
     42 C          29.7960   29.4128    5.0309 C.2       6 UNK         0.5070 
     43 O          30.8657   29.9653    4.7831 O.2       6 UNK        -0.5237 
     44 N          28.6071   29.8653    4.6182 N.am      7 UNK        -0.4739 
     45 CA         28.3694   31.0947    3.8629 C.3       7 UNK         0.0276 
     46 CB         26.8553   31.3143    3.7156 C.3       7 UNK        -0.1927 
     47 C          29.0566   31.1162    2.4893 C.2       7 UNK         0.5013 
     48 O          29.6694   32.1273    2.1449 O.2       7 UNK        -0.5193 
     49 N          28.9497   30.0123    1.7349 N.am      8 UNK        -0.4253 
     50 CA         29.5621   29.8815    0.4104 C.3       8 UNK         0.0242 
     51 CB         28.9037   28.7212   -0.3509 C.3       8 UNK        -0.2000 
     52 C          31.0854   29.6943    0.4847 C.2       8 UNK         0.4948 
     53 O          31.8201   30.3697   -0.2359 O.2       8 UNK        -0.5275 
     54 N          31.5256   28.7791    1.3577 N.am      9 UNK        -0.4246 
     55 CA         32.9293   28.3910    1.5135 C.3       9 UNK         0.0261 
     56 CB         32.9864   27.0126    2.1857 C.3       9 UNK        -0.1959 
     57 C          33.7895   29.4009    2.2937 C.2       9 UNK         0.5033 
     58 O          35.0132   29.3540    2.1600 O.2       9 UNK        -0.5390 
     59 N          33.1537   30.2638    3.1010 N.am      10 UNK        -0.4215 
     60 CA         33.7585   31.2058    4.0507 C.3       10 UNK         0.0240 
     61 CB         34.6035   32.2777    3.3279 C.3       10 UNK        -0.1982 
     62 C          34.5182   30.4709    5.1726 C.2       10 UNK         0.4970 
     63 O          35.6792   30.7857    5.4432 O.2       10 UNK        -0.4916 
     64 N          33.8473   29.4873    5.7893 N.am      11 UNK        -0.4279 
     65 CA         34.3717   28.6872    6.9096 C.3       11 UNK         0.1003 
     66 C          34.6258   29.5405    8.1831 C.2       11 UNK         0.5709 
     67 N          35.6588   29.2193    8.9502 N.am      11 UNK        -0.7358 
     68 O          33.8719   30.4583    8.5030 O.2       11 UNK        -0.4999 
     69 C69        33.4588   27.4783    7.2486 C.3       12 UNK        -0.0954 
     70 S70        33.2435   26.3328    5.8482 S.3       12 UNK        -0.2268 
     71 C71        32.0424   25.1421    6.5474 C.3       12 UNK         0.0203 
     72 H72        34.4760   26.6135   -3.5819 H         1 UNK         0.0888 
     73 H73        33.6919   27.7664   -4.6651 H         1 UNK         0.0888 
     74 H74        34.3804   28.3185   -3.1355 H         1 UNK         0.0888 
     75 H75        32.9699   25.3467   -2.5182 H         1 UNK         0.3017 
     76 H76        30.7826   26.5165   -1.0584 H         1 UNK         0.0873 
     77 H77        31.2338   23.5040   -1.2298 H         1 UNK         0.0745 
     78 H78        32.3995   24.5060   -0.4228 H         1 UNK         0.0745 
     79 H79        31.1369   22.3507    1.4572 H         1 UNK         0.0705 
     80 H80        32.3578   23.5709    1.7309 H         1 UNK         0.0705 
     81 H81        32.5372   24.6814    3.8302 H         1 UNK         0.1334 
     82 H82        29.7562   23.7723    6.9735 H         1 UNK         0.1417 
     83 H83        29.1064   22.2651    3.0121 H         1 UNK         0.1562 
     84 H84        27.9491   22.2411    6.5920 H         1 UNK         0.0748 
     85 H85        28.0556   21.1969    5.1985 H         1 UNK         0.0748 
     86 H86        27.3055   24.6603    6.3631 H         1 UNK         0.0940 
     87 H87        25.6656   24.9804    5.8938 H         1 UNK         0.0940 
     88 H88        27.9474   25.2835    3.8669 H         1 UNK         0.0703 
     89 H89        25.2009   25.5649    3.6188 H         1 UNK         0.3081 
     90 H90        24.2672   26.2292    1.7348 H         1 UNK         0.0719 
     91 H91        24.4779   29.2337    2.3245 H         1 UNK         0.0809 
     92 H92        23.0097   28.3524    1.9040 H         1 UNK         0.0809 
     93 H93        23.8156   28.0412    3.4316 H         1 UNK         0.0809 
     94 H94        24.6899   28.4155    0.0129 H         1 UNK         0.2990 
     95 H95        24.8273   26.6618   -2.5794 H         1 UNK         0.0690 
     96 H96        25.2604   29.0317   -3.2842 H         1 UNK         0.0788 
     97 H97        25.9427   29.3888   -1.7052 H         1 UNK         0.0788 
     98 H98        24.2407   28.9546   -1.8677 H         1 UNK         0.0788 
     99 H99        27.6900   26.9607   -2.0817 H         1 UNK         0.2993 
    100 H100       28.5356   25.4424   -4.9673 H         1 UNK         0.0949 
    101 H101       28.1733   27.4736   -6.3680 H         1 UNK         0.0767 
    102 H102       28.8597   28.4904   -5.1075 H         1 UNK         0.0767 
    103 H103       29.8684   27.3102   -5.9438 H         1 UNK         0.0767 
    104 H104       30.0794   27.2986   -3.3439 H         1 UNK         0.3013 
    105 H105       29.5338   26.2675    4.8906 H         1 UNK         0.3121 
    106 H106       30.8371   27.7501    5.7953 H         1 UNK         0.0774 
    107 H107       30.1799   29.1022    7.7540 H         1 UNK         0.0815 
    108 H108       28.4829   28.7593    7.4695 H         1 UNK         0.0815 
    109 H109       29.5838   27.4585    7.9201 H         1 UNK         0.0815 
    110 H110       27.7925   29.3121    4.8745 H         1 UNK         0.2987 
    111 H111       28.7804   31.9210    4.4469 H         1 UNK         0.0949 
    112 H112       26.3709   31.4030    4.6882 H         1 UNK         0.0806 
    113 H113       26.3812   30.4916    3.1795 H         1 UNK         0.0806 
    114 H114       26.6440   32.2311    3.1633 H         1 UNK         0.0806 
    115 H115       28.3956   29.2291    2.0721 H         1 UNK         0.3010 
    116 H116       29.3674   30.7994   -0.1492 H         1 UNK         0.0829 
    117 H117       27.8310   28.8807   -0.4418 H         1 UNK         0.0813 
    118 H118       29.3112   28.6396   -1.3589 H         1 UNK         0.0813 
    119 H119       29.0529   27.7648    0.1521 H         1 UNK         0.0813 
    120 H120       30.8468   28.2826    1.9156 H         1 UNK         0.3038 
    121 H121       33.3714   28.2982    0.5187 H         1 UNK         0.0769 
    122 H122       32.5745   26.2433    1.5358 H         1 UNK         0.0811 
    123 H123       32.4249   27.0035    3.1193 H         1 UNK         0.0811 
    124 H124       34.0126   26.7213    2.4153 H         1 UNK         0.0811 
    125 H125       32.1475   30.1720    3.1939 H         1 UNK         0.3204 
    126 H126       32.9294   31.7237    4.5352 H         1 UNK         0.0748 
    127 H127       34.0252   32.7796    2.5521 H         1 UNK         0.0771 
    128 H128       34.9400   33.0431    4.0282 H         1 UNK         0.0771 
    129 H129       35.4931   31.8536    2.8618 H         1 UNK         0.0771 
    130 H130       32.8849   29.3250    5.5259 H         1 UNK         0.2980 
    131 H131       35.3359   28.2916    6.5836 H         1 UNK         0.0545 
    132 H132       35.8298   29.7517    9.7890 H         1 UNK         0.3459 
    133 H133       36.2757   28.4606    8.7045 H         1 UNK         0.3459 
    134 H134       33.8779   26.9052    8.0780 H         1 UNK         0.0616 
    135 H135       32.4788   27.8249    7.5798 H         1 UNK         0.0616 
    136 H136       31.3469   25.6865    7.1874 H         1 UNK         0.0634 
    137 H137       32.5801   24.4487    7.1952 H         1 UNK         0.0634 
@<TRIPOS>BOND
     1    1    2 1    
     2    1   72 1    
     3    1   73 1    
     4    1   74 1    
     5    2    3 2    
     6    2    4 am   BACKBONE|DICT|INTERRES
     7    4    5 1    
     8    4   75 1    
     9    5    6 1    
    10    5   35 1    
    11    5   76 1    
    12    6    7 1    
    13    6   77 1    
    14    6   78 1    
    15    7    8 1    
    16    8    9 1    
    17    8   79 1    
    18    8   80 1    
    19    9   10 ar   
    20    9   14 ar   
    21   10   11 ar   
    22   10   81 1    
    23   11   12 ar   
    24   11   71 1    
    25   12   13 ar   
    26   12   82 1    
    27   13   14 ar   
    28   13   15 1    
    29   14   83 1    
    30   15   16 1    
    31   15   84 1    
    32   15   85 1    
    33   16   17 1    
    34   17   18 1    
    35   17   86 1    
    36   17   87 1    
    37   18   19 1    
    38   18   37 1    
    39   18   88 1    
    40   19   20 am   BACKBONE|DICT|INTERRES
    41   19   89 1    
    42   20   21 2    
    43   20   22 1    
    44   22   23 1    
    45   22   24 1    
    46   22   90 1    
    47   23   91 1    
    48   23   92 1    
    49   23   93 1    
    50   24   25 am   BACKBONE|DICT|INTERRES
    51   24   94 1    
    52   25   26 2    
    53   25   27 1    
    54   27   28 1    
    55   27   29 1    
    56   27   95 1    
    57   28   96 1    
    58   28   97 1    
    59   28   98 1    
    60   29   30 am   BACKBONE|DICT|INTERRES
    61   29   99 1    
    62   30   31 2    
    63   30   32 1    
    64   32   33 1    
    65   32   34 1    
    66   32  100 1    
    67   33  101 1    
    68   33  102 1    
    69   33  103 1    
    70   34   35 am   BACKBONE|DICT|INTERRES
    71   34  104 1    
    72   35   36 2    
    73   37   38 2    
    74   37   39 am   BACKBONE|DICT|INTERRES
    75   39   40 1    
    76   39  105 1    
    77   40   41 1    
    78   40   42 1    
    79   40  106 1    
    80   41  107 1    
    81   41  108 1    
    82   41  109 1    
    83   42   43 2    
    84   42   44 am   BACKBONE|DICT|INTERRES
    85   44   45 1    
    86   44  110 1    
    87   45   46 1    
    88   45   47 1    
    89   45  111 1    
    90   46  112 1    
    91   46  113 1    
    92   46  114 1    
    93   47   48 2    
    94   47   49 am   BACKBONE|DICT|INTERRES
    95   49   50 1    
    96   49  115 1    
    97   50   51 1    
    98   50   52 1    
    99   50  116 1    
   100   51  117 1    
   101   51  118 1    
   102   51  119 1    
   103   52   53 2    
   104   52   54 am   BACKBONE|DICT|INTERRES
   105   54   55 1    
   106   54  120 1    
   107   55   56 1    
   108   55   57 1    
   109   55  121 1    
   110   56  122 1    
   111   56  123 1    
   112   56  124 1    
   113   57   58 2    
   114   57   59 am   BACKBONE|DICT|INTERRES
   115   59   60 1    
   116   59  125 1    
   117   60   61 1    
   118   60   62 1    
   119   60  126 1    
   120   61  127 1    
   121   61  128 1    
   122   61  129 1    
   123   62   63 2    
   124   62   64 am   BACKBONE|DICT|INTERRES
   125   64   65 1    
   126   64  130 1    
   127   65   66 1    
   128   65   69 1    
   129   65  131 1    
   130   66   67 am   BACKBONE|DICT|INTERRES
   131   66   68 2    
   132   67  132 1    
   133   67  133 1    
   134   69   70 1    
   135   69  134 1    
   136   69  135 1    
   137   70   71 1    
   138   71  136 1    
   139   71  137 1    
@<TRIPOS>SUBSTRUCTURE
     1 UNK         1 GROUP             0       ****    0 ROOT    
