@<TRIPOS>MOLECULE
3R136
137   139    1
SMALL
USER_CHARGES


@<TRIPOS>ATOM
      1 CA         29.3698   18.8749   -3.7123 C.3       0 UNK        -0.1979 
      2 C          29.3677   20.3112   -3.2095 C.2       0 UNK         0.4864 
      3 O          29.3034   21.2409   -4.0158 O.2       0 UNK        -0.5359 
      4 N          29.4457   20.4994   -1.8856 N.am      1 UNK        -0.4318 
      5 CA         29.3874   21.8051   -1.2226 C.3       1 UNK         0.0824 
      6 C6         29.9149   21.7094    0.2303 C.3       12 UNK        -0.0944 
      7 S7         30.3338   23.3394    0.9271 S.3       12 UNK        -0.2672 
      8 C8         30.5693   22.9011    2.6757 C.3       12 UNK         0.0333 
      9 C9         30.7998   24.1464    3.5159 C.ar      12 UNK        -0.0807 
     10 C10        32.0067   24.8427    3.4137 C.ar      12 UNK        -0.0894 
     11 C11        32.2166   26.0139    4.1460 C.ar      12 UNK        -0.0804 
     12 C12        31.2117   26.4782    5.0008 C.ar      12 UNK        -0.0824 
     13 C13        30.0089   25.7756    5.1327 C.ar      12 UNK        -0.0762 
     14 C14        29.8073   24.6120    4.3835 C.ar      12 UNK        -0.0782 
     15 C15        28.9364   26.2582    6.1017 C.3       12 UNK         0.0230 
     16 S16        27.3928   26.7433    5.2626 S.3       12 UNK        -0.2608 
     17 C17        27.9265   28.2060    4.3131 C.3       12 UNK        -0.0989 
     18 CA         27.8227   27.9825    2.7789 C.3       5 UNK         0.0716 
     19 N          26.4619   27.6808    2.3124 N.am      5 UNK        -0.4135 
     20 C          25.3909   28.4902    2.3888 C.2       4 UNK         0.5031 
     21 O          25.4124   29.6087    2.9043 O.2       4 UNK        -0.5229 
     22 CA         24.0651   28.0036    1.7669 C.3       4 UNK         0.0329 
     23 CB         23.7280   28.8318    0.5148 C.3       4 UNK        -0.2001 
     24 N          24.0639   26.5869    1.4022 N.am      4 UNK        -0.4303 
     25 C          24.0192   25.5614    2.2635 C.2       3 UNK         0.5044 
     26 O          23.8552   25.6927    3.4764 O.2       3 UNK        -0.5152 
     27 CA         24.2158   24.1498    1.6750 C.3       3 UNK         0.0319 
     28 CB         22.8695   23.4128    1.5861 C.3       3 UNK        -0.2001 
     29 N          24.8669   24.1211    0.3567 N.am      3 UNK        -0.4354 
     30 C          26.1047   24.5634    0.0939 C.2       2 UNK         0.4964 
     31 O          26.8349   25.1021    0.9290 O.2       2 UNK        -0.5047 
     32 CA         26.5880   24.4434   -1.3584 C.3       2 UNK         0.0288 
     33 CB         26.7847   25.8373   -1.9801 C.3       2 UNK        -0.2113 
     34 N          27.8491   23.7078   -1.4109 N.am      2 UNK        -0.4145 
     35 C          27.9547   22.3797   -1.2723 C.2       1 UNK         0.5006 
     36 O          26.9853   21.6227   -1.1616 O.2       1 UNK        -0.5103 
     37 C          28.4337   29.1395    1.9594 C.2       5 UNK         0.5055 
     38 O          28.9365   30.1107    2.5240 O.2       5 UNK        -0.5220 
     39 N          28.3525   29.0251    0.6260 N.am      6 UNK        -0.4450 
     40 CA         28.8633   30.0223   -0.3202 C.3       6 UNK         0.0367 
     41 CB         28.2597   29.7520   -1.7083 C.3       6 UNK        -0.1929 
     42 C          30.4012   30.0620   -0.4003 C.2       6 UNK         0.5070 
     43 O          30.9606   31.0941   -0.7731 O.2       6 UNK        -0.5237 
     44 N          31.0552   28.9404   -0.0716 N.am      7 UNK        -0.4739 
     45 CA         32.5090   28.7847   -0.0747 C.3       7 UNK         0.0276 
     46 CB         32.8451   27.2907    0.0652 C.3       7 UNK        -0.1927 
     47 C          33.1783   29.5825    1.0555 C.2       7 UNK         0.5013 
     48 O          32.6500   29.6164    2.1687 O.2       7 UNK        -0.5193 
     49 N          34.3467   30.1704    0.7549 N.am      8 UNK        -0.4253 
     50 CA         35.2998   30.8002    1.6841 C.3       8 UNK         0.0242 
     51 CB         36.1007   29.6983    2.4103 C.3       8 UNK        -0.2000 
     52 C          34.6881   31.8281    2.6618 C.2       8 UNK         0.4948 
     53 O          35.1148   31.8995    3.8164 O.2       8 UNK        -0.5275 
     54 N          33.6733   32.5735    2.1950 N.am      9 UNK        -0.4246 
     55 CA         32.8500   33.5202    2.9626 C.3       9 UNK         0.0261 
     56 CB         33.6701   34.7746    3.3338 C.3       9 UNK        -0.1959 
     57 C          32.1661   32.8647    4.1832 C.2       9 UNK         0.5033 
     58 O          32.1533   33.4483    5.2686 O.2       9 UNK        -0.5390 
     59 N          31.6365   31.6501    3.9746 N.am      10 UNK        -0.4215 
     60 CA         31.0734   30.7338    4.9708 C.3       10 UNK         0.0240 
     61 CB         29.8382   31.3297    5.6805 C.3       10 UNK        -0.1982 
     62 C          32.1409   30.1866    5.9330 C.2       10 UNK         0.4970 
     63 O          31.8799   30.0471    7.1289 O.2       10 UNK        -0.4916 
     64 N          33.3109   29.8528    5.3715 N.am      11 UNK        -0.4279 
     65 CA         34.4845   29.2918    6.0585 C.3       11 UNK         0.1003 
     66 C          35.0597   30.2740    7.1205 C.2       11 UNK         0.5709 
     67 N          35.3317   31.5123    6.7269 N.am      11 UNK        -0.7358 
     68 O          35.2662   29.9326    8.2831 O.2       11 UNK        -0.4999 
     69 C69        34.2458   27.8276    6.5534 C.3       12 UNK        -0.0954 
     70 S70        34.7009   26.5596    5.3163 S.3       12 UNK        -0.2268 
     71 C71        33.5077   26.7965    3.9610 C.3       12 UNK         0.0203 
     72 H72        30.2128   18.7133   -4.3835 H         1 UNK         0.0888 
     73 H73        29.4445   18.1568   -2.8957 H         1 UNK         0.0888 
     74 H74        28.4516   18.6688   -4.2617 H         1 UNK         0.0888 
     75 H75        29.4626   19.6968   -1.2727 H         1 UNK         0.3017 
     76 H76        30.0450   22.4753   -1.7817 H         1 UNK         0.0873 
     77 H77        30.8244   21.1066    0.2593 H         1 UNK         0.0745 
     78 H78        29.1939   21.2045    0.8769 H         1 UNK         0.0745 
     79 H79        31.4227   22.2281    2.7714 H         1 UNK         0.0705 
     80 H80        29.6961   22.3533    3.0336 H         1 UNK         0.0705 
     81 H81        32.7717   24.4841    2.7383 H         1 UNK         0.1334 
     82 H82        31.3669   27.3851    5.5657 H         1 UNK         0.1417 
     83 H83        28.8717   24.0763    4.4723 H         1 UNK         0.1562 
     84 H84        29.2967   27.0968    6.7000 H         1 UNK         0.0748 
     85 H85        28.7130   25.4565    6.8069 H         1 UNK         0.0748 
     86 H86        28.9528   28.4435    4.5907 H         1 UNK         0.0940 
     87 H87        27.3304   29.0642    4.6268 H         1 UNK         0.0940 
     88 H88        28.4242   27.1033    2.5397 H         1 UNK         0.0703 
     89 H89        26.3567   26.7700    1.8758 H         1 UNK         0.3081 
     90 H90        23.2801   28.1663    2.5086 H         1 UNK         0.0719 
     91 H91        24.4814   28.7116   -0.2650 H         1 UNK         0.0809 
     92 H92        22.7620   28.5471    0.0975 H         1 UNK         0.0809 
     93 H93        23.6734   29.8953    0.7521 H         1 UNK         0.0809 
     94 H94        24.1769   26.3717    0.4228 H         1 UNK         0.2990 
     95 H95        24.8595   23.6037    2.3680 H         1 UNK         0.0690 
     96 H96        23.0024   22.3789    1.2666 H         1 UNK         0.0788 
     97 H97        22.1890   23.8980    0.8851 H         1 UNK         0.0788 
     98 H98        22.3728   23.3872    2.5572 H         1 UNK         0.0788 
     99 H99        24.3358   23.6988   -0.3920 H         1 UNK         0.2993 
    100 H100       25.8422   23.9055   -1.9482 H         1 UNK         0.0949 
    101 H101       27.0911   25.7644   -3.0239 H         1 UNK         0.0767 
    102 H102       25.8581   26.4125   -1.9555 H         1 UNK         0.0767 
    103 H103       27.5428   26.4147   -1.4498 H         1 UNK         0.0767 
    104 H104       28.6934   24.2613   -1.4264 H         1 UNK         0.3013 
    105 H105       27.9090   28.2066    0.2362 H         1 UNK         0.3121 
    106 H106       28.5287   31.0080    0.0108 H         1 UNK         0.0774 
    107 H107       28.5886   30.5031   -2.4279 H         1 UNK         0.0815 
    108 H108       28.5578   28.7776   -2.0974 H         1 UNK         0.0815 
    109 H109       27.1704   29.7865   -1.6826 H         1 UNK         0.0815 
    110 H110       30.5169   28.1553    0.2615 H         1 UNK         0.2987 
    111 H111       32.8871   29.1413   -1.0354 H         1 UNK         0.0949 
    112 H112       33.9239   27.1289    0.0711 H         1 UNK         0.0806 
    113 H113       32.4481   26.8739    0.9921 H         1 UNK         0.0806 
    114 H114       32.4364   26.7116   -0.7630 H         1 UNK         0.0806 
    115 H115       34.6663   30.1102   -0.2024 H         1 UNK         0.3010 
    116 H116       36.0026   31.3659    1.0706 H         1 UNK         0.0829 
    117 H117       36.6318   29.0653    1.6996 H         1 UNK         0.0813 
    118 H118       36.8498   30.1207    3.0814 H         1 UNK         0.0813 
    119 H119       35.4511   29.0542    3.0019 H         1 UNK         0.0813 
    120 H120       33.3878   32.4216    1.2370 H         1 UNK         0.3038 
    121 H121       32.0443   33.8374    2.2988 H         1 UNK         0.0769 
    122 H122       33.0380   35.5306    3.8013 H         1 UNK         0.0811 
    123 H123       34.1202   35.2303    2.4520 H         1 UNK         0.0811 
    124 H124       34.4705   34.5413    4.0368 H         1 UNK         0.0811 
    125 H125       31.7591   31.2302    3.0577 H         1 UNK         0.3204 
    126 H126       30.7386   29.8675    4.4018 H         1 UNK         0.0748 
    127 H127       29.3489   30.5801    6.3035 H         1 UNK         0.0771 
    128 H128       30.1020   32.1666    6.3273 H         1 UNK         0.0771 
    129 H129       29.1003   31.6792    4.9582 H         1 UNK         0.0771 
    130 H130       33.4288   30.0355    4.3840 H         1 UNK         0.2980 
    131 H131       35.2750   29.2506    5.3099 H         1 UNK         0.0545 
    132 H132       35.7024   32.1768    7.3865 H         1 UNK         0.3459 
    133 H133       35.1915   31.7774    5.7553 H         1 UNK         0.3459 
    134 H134       34.8652   27.6028    7.4224 H         1 UNK         0.0616 
    135 H135       33.2214   27.6693    6.8887 H         1 UNK         0.0616 
    136 H136       33.9953   26.4922    3.0337 H         1 UNK         0.0634 
    137 H137       33.2788   27.8473    3.8297 H         1 UNK         0.0634 
@<TRIPOS>BOND
     1    1    2 1    
     2    1   72 1    
     3    1   73 1    
     4    1   74 1    
     5    2    3 2    
     6    2    4 am   BACKBONE|DICT|INTERRES
     7    4    5 1    
     8    4   75 1    
     9    5    6 1    
    10    5   35 1    
    11    5   76 1    
    12    6    7 1    
    13    6   77 1    
    14    6   78 1    
    15    7    8 1    
    16    8    9 1    
    17    8   79 1    
    18    8   80 1    
    19    9   10 ar   
    20    9   14 ar   
    21   10   11 ar   
    22   10   81 1    
    23   11   12 ar   
    24   11   71 1    
    25   12   13 ar   
    26   12   82 1    
    27   13   14 ar   
    28   13   15 1    
    29   14   83 1    
    30   15   16 1    
    31   15   84 1    
    32   15   85 1    
    33   16   17 1    
    34   17   18 1    
    35   17   86 1    
    36   17   87 1    
    37   18   19 1    
    38   18   37 1    
    39   18   88 1    
    40   19   20 am   BACKBONE|DICT|INTERRES
    41   19   89 1    
    42   20   21 2    
    43   20   22 1    
    44   22   23 1    
    45   22   24 1    
    46   22   90 1    
    47   23   91 1    
    48   23   92 1    
    49   23   93 1    
    50   24   25 am   BACKBONE|DICT|INTERRES
    51   24   94 1    
    52   25   26 2    
    53   25   27 1    
    54   27   28 1    
    55   27   29 1    
    56   27   95 1    
    57   28   96 1    
    58   28   97 1    
    59   28   98 1    
    60   29   30 am   BACKBONE|DICT|INTERRES
    61   29   99 1    
    62   30   31 2    
    63   30   32 1    
    64   32   33 1    
    65   32   34 1    
    66   32  100 1    
    67   33  101 1    
    68   33  102 1    
    69   33  103 1    
    70   34   35 am   BACKBONE|DICT|INTERRES
    71   34  104 1    
    72   35   36 2    
    73   37   38 2    
    74   37   39 am   BACKBONE|DICT|INTERRES
    75   39   40 1    
    76   39  105 1    
    77   40   41 1    
    78   40   42 1    
    79   40  106 1    
    80   41  107 1    
    81   41  108 1    
    82   41  109 1    
    83   42   43 2    
    84   42   44 am   BACKBONE|DICT|INTERRES
    85   44   45 1    
    86   44  110 1    
    87   45   46 1    
    88   45   47 1    
    89   45  111 1    
    90   46  112 1    
    91   46  113 1    
    92   46  114 1    
    93   47   48 2    
    94   47   49 am   BACKBONE|DICT|INTERRES
    95   49   50 1    
    96   49  115 1    
    97   50   51 1    
    98   50   52 1    
    99   50  116 1    
   100   51  117 1    
   101   51  118 1    
   102   51  119 1    
   103   52   53 2    
   104   52   54 am   BACKBONE|DICT|INTERRES
   105   54   55 1    
   106   54  120 1    
   107   55   56 1    
   108   55   57 1    
   109   55  121 1    
   110   56  122 1    
   111   56  123 1    
   112   56  124 1    
   113   57   58 2    
   114   57   59 am   BACKBONE|DICT|INTERRES
   115   59   60 1    
   116   59  125 1    
   117   60   61 1    
   118   60   62 1    
   119   60  126 1    
   120   61  127 1    
   121   61  128 1    
   122   61  129 1    
   123   62   63 2    
   124   62   64 am   BACKBONE|DICT|INTERRES
   125   64   65 1    
   126   64  130 1    
   127   65   66 1    
   128   65   69 1    
   129   65  131 1    
   130   66   67 am   BACKBONE|DICT|INTERRES
   131   66   68 2    
   132   67  132 1    
   133   67  133 1    
   134   69   70 1    
   135   69  134 1    
   136   69  135 1    
   137   70   71 1    
   138   71  136 1    
   139   71  137 1    
@<TRIPOS>SUBSTRUCTURE
     1 UNK         1 GROUP             0       ****    0 ROOT    
