@<TRIPOS>MOLECULE
3R136
137   139    1
SMALL
USER_CHARGES


@<TRIPOS>ATOM
      1 CA         29.6867   20.1827   -3.6659 C.3       0 UNK        -0.1979 
      2 C          29.6557   21.6668   -3.3311 C.2       0 UNK         0.4864 
      3 O          29.5734   22.4972   -4.2378 O.2       0 UNK        -0.5359 
      4 N          29.7303   22.0056   -2.0382 N.am      1 UNK        -0.4318 
      5 CA         29.6365   23.3734   -1.5207 C.3       1 UNK         0.0824 
      6 C6         30.2126   23.4923   -0.0846 C.3       12 UNK        -0.0944 
      7 S7         29.5583   22.2667    1.1024 S.3       12 UNK        -0.2672 
      8 C8         31.0744   21.7807    1.9831 C.3       12 UNK         0.0333 
      9 C9         31.5596   22.8839    2.9127 C.ar      12 UNK        -0.0807 
     10 C10        32.6002   23.7371    2.5282 C.ar      12 UNK        -0.0894 
     11 C11        33.0653   24.7381    3.3889 C.ar      12 UNK        -0.0804 
     12 C12        32.4820   24.8557    4.6570 C.ar      12 UNK        -0.0824 
     13 C13        31.4117   24.0428    5.0358 C.ar      12 UNK        -0.0762 
     14 C14        30.9625   23.0484    4.1650 C.ar      12 UNK        -0.0782 
     15 C15        30.7347   24.2524    6.3825 C.3       12 UNK         0.0230 
     16 S16        29.0788   24.9976    6.2095 S.3       12 UNK        -0.2608 
     17 C17        29.4356   26.6055    5.4140 C.3       12 UNK        -0.0989 
     18 CA         28.7350   26.7524    4.0346 C.3       5 UNK         0.0716 
     19 N          27.2731   26.6278    4.1225 N.am      5 UNK        -0.4135 
     20 C          26.4319   27.4585    4.7612 C.2       4 UNK         0.5031 
     21 O          26.7876   28.4791    5.3536 O.2       4 UNK        -0.5229 
     22 CA         24.9399   27.0621    4.7608 C.3       4 UNK         0.0329 
     23 CB         23.9968   28.2534    5.0391 C.3       4 UNK        -0.2001 
     24 N          24.5354   26.3298    3.5535 N.am      4 UNK        -0.4303 
     25 C          24.5224   26.7922    2.2952 C.2       3 UNK         0.5044 
     26 O          24.7595   27.9573    1.9728 O.2       3 UNK        -0.5152 
     27 CA         24.1695   25.7561    1.2153 C.3       3 UNK         0.0319 
     28 CB         22.6674   25.8152    0.8926 C.3       3 UNK        -0.2001 
     29 N          24.9312   25.9033   -0.0291 N.am      3 UNK        -0.4354 
     30 C          26.2655   25.9607   -0.1476 C.2       2 UNK         0.4964 
     31 O          27.0571   26.0103    0.8007 O.2       2 UNK        -0.5047 
     32 CA         26.8032   25.9655   -1.5892 C.3       2 UNK         0.0288 
     33 CB         26.9900   27.3975   -2.1128 C.3       2 UNK        -0.2113 
     34 N          28.0763   25.2513   -1.6734 N.am      2 UNK        -0.4145 
     35 C          28.1954   23.9186   -1.5987 C.2       1 UNK         0.5006 
     36 O          27.2330   23.1449   -1.5669 O.2       1 UNK        -0.5103 
     37 C          29.1384   28.0390    3.2769 C.2       5 UNK         0.5055 
     38 O          29.9924   28.7999    3.7398 O.2       5 UNK        -0.5220 
     39 N          28.4944   28.2639    2.1233 N.am      6 UNK        -0.4450 
     40 CA         28.6181   29.4802    1.3144 C.3       6 UNK         0.0367 
     41 CB         27.2162   29.9064    0.8443 C.3       6 UNK        -0.1929 
     42 C          29.6012   29.3297    0.1383 C.2       6 UNK         0.5070 
     43 O          29.5864   30.1593   -0.7714 O.2       6 UNK        -0.5237 
     44 N          30.4487   28.2894    0.1623 N.am      7 UNK        -0.4739 
     45 CA         31.5299   28.0719   -0.8113 C.3       7 UNK         0.0276 
     46 CB         32.0377   26.6267   -0.6962 C.3       7 UNK        -0.1927 
     47 C          32.6931   29.0778   -0.6872 C.2       7 UNK         0.5013 
     48 O          33.4854   29.2054   -1.6215 O.2       7 UNK        -0.5193 
     49 N          32.7581   29.7829    0.4449 N.am      8 UNK        -0.4253 
     50 CA         33.5853   30.9575    0.6907 C.3       8 UNK         0.0242 
     51 CB         34.8662   30.5531    1.4455 C.3       8 UNK        -0.2000 
     52 C          32.7294   31.9477    1.4936 C.2       8 UNK         0.4948 
     53 O          31.5803   31.6356    1.8263 O.2       8 UNK        -0.5275 
     54 N          33.2948   33.1209    1.8038 N.am      9 UNK        -0.4246 
     55 CA         32.6673   34.1730    2.6100 C.3       9 UNK         0.0261 
     56 CB         33.4959   35.4647    2.4784 C.3       9 UNK        -0.1959 
     57 C          32.4914   33.7361    4.0788 C.2       9 UNK         0.5033 
     58 O          33.2986   34.1142    4.9298 O.2       9 UNK        -0.5390 
     59 N          31.4541   32.9204    4.3175 N.am      10 UNK        -0.4215 
     60 CA         31.1117   32.2155    5.5558 C.3       10 UNK         0.0240 
     61 CB         30.8025   33.2003    6.7043 C.3       10 UNK        -0.1982 
     62 C          32.1986   31.1874    5.9116 C.2       10 UNK         0.4970 
     63 O          32.9905   31.4132    6.8288 O.2       10 UNK        -0.4916 
     64 N          32.2241   30.0802    5.1575 N.am      11 UNK        -0.4279 
     65 CA         33.1525   28.9572    5.3615 C.3       11 UNK         0.1003 
     66 C          32.8884   28.1430    6.6680 C.2       11 UNK         0.5709 
     67 N          31.7282   28.2618    7.3037 N.am      11 UNK        -0.7358 
     68 O          33.7574   27.4093    7.1306 O.2       11 UNK        -0.4999 
     69 C69        33.2157   28.0673    4.0871 C.3       12 UNK        -0.0954 
     70 S70        34.7078   27.0157    4.0055 S.3       12 UNK        -0.2268 
     71 C71        34.1865   25.6598    2.8926 C.3       12 UNK         0.0203 
     72 H72        28.7700   19.8953   -4.1803 H         1 UNK         0.0888 
     73 H73        30.5293   19.9629   -4.3210 H         1 UNK         0.0888 
     74 H74        29.7819   19.5654   -2.7726 H         1 UNK         0.0888 
     75 H75        29.7552   21.2851   -1.3304 H         1 UNK         0.3017 
     76 H76        30.2478   24.0023   -2.1720 H         1 UNK         0.0873 
     77 H77        30.0405   24.4861    0.3331 H         1 UNK         0.0745 
     78 H78        31.2961   23.3848   -0.1419 H         1 UNK         0.0745 
     79 H79        30.8684   20.8809    2.5647 H         1 UNK         0.0705 
     80 H80        31.8494   21.5054    1.2659 H         1 UNK         0.0705 
     81 H81        33.0529   23.6216    1.5529 H         1 UNK         0.1334 
     82 H82        32.8363   25.5968    5.3554 H         1 UNK         0.1417 
     83 H83        30.1394   22.4104    4.4577 H         1 UNK         0.1562 
     84 H84        31.3435   24.8840    7.0318 H         1 UNK         0.0748 
     85 H85        30.6396   23.2926    6.8921 H         1 UNK         0.0748 
     86 H86        30.5125   26.7155    5.3031 H         1 UNK         0.0940 
     87 H87        29.1263   27.4021    6.0921 H         1 UNK         0.0940 
     88 H88        29.0742   25.9255    3.4078 H         1 UNK         0.0703 
     89 H89        26.8783   25.8300    3.6462 H         1 UNK         0.3081 
     90 H90        24.8242   26.3602    5.5881 H         1 UNK         0.0719 
     91 H91        24.1176   29.0485    4.3028 H         1 UNK         0.0809 
     92 H92        22.9518   27.9438    5.0316 H         1 UNK         0.0809 
     93 H93        24.1969   28.6889    6.0189 H         1 UNK         0.0809 
     94 H94        24.2958   25.3585    3.7015 H         1 UNK         0.2990 
     95 H95        24.3987   24.7620    1.6045 H         1 UNK         0.0690 
     96 H96        22.3776   25.0299    0.1940 H         1 UNK         0.0788 
     97 H97        22.3885   26.7751    0.4556 H         1 UNK         0.0788 
     98 H98        22.0663   25.6815    1.7933 H         1 UNK         0.0788 
     99 H99        24.3812   25.9128   -0.8756 H         1 UNK         0.2993 
    100 H100       26.0816   25.4562   -2.2325 H         1 UNK         0.0949 
    101 H101       27.2652   27.3982   -3.1677 H         1 UNK         0.0767 
    102 H102       26.0697   27.9757   -2.0189 H         1 UNK         0.0767 
    103 H103       27.7689   27.9280   -1.5679 H         1 UNK         0.0767 
    104 H104       28.9082   25.8213   -1.6663 H         1 UNK         0.3013 
    105 H105       27.8428   27.5607    1.7830 H         1 UNK         0.3121 
    106 H106       29.0112   30.2903    1.9325 H         1 UNK         0.0774 
    107 H107       27.2537   30.8182    0.2472 H         1 UNK         0.0815 
    108 H108       26.7379   29.1357    0.2411 H         1 UNK         0.0815 
    109 H109       26.5646   30.1081    1.6948 H         1 UNK         0.0815 
    110 H110       30.3934   27.6515    0.9425 H         1 UNK         0.2987 
    111 H111       31.1169   28.2049   -1.8139 H         1 UNK         0.0949 
    112 H112       32.2692   26.3562    0.3331 H         1 UNK         0.0806 
    113 H113       31.2941   25.9283   -1.0716 H         1 UNK         0.0806 
    114 H114       32.9410   26.4725   -1.2886 H         1 UNK         0.0806 
    115 H115       32.0022   29.6778    1.1103 H         1 UNK         0.3010 
    116 H116       33.8482   31.4280   -0.2592 H         1 UNK         0.0829 
    117 H117       35.3635   29.7111    0.9635 H         1 UNK         0.0813 
    118 H118       35.5818   31.3752    1.4697 H         1 UNK         0.0813 
    119 H119       34.6638   30.2746    2.4793 H         1 UNK         0.0813 
    120 H120       34.2470   33.2904    1.5132 H         1 UNK         0.3038 
    121 H121       31.6748   34.3747    2.2006 H         1 UNK         0.0769 
    122 H122       33.0572   36.2701    3.0690 H         1 UNK         0.0811 
    123 H123       33.5350   35.8079    1.4444 H         1 UNK         0.0811 
    124 H124       34.5208   35.3277    2.8257 H         1 UNK         0.0811 
    125 H125       30.9709   32.5865    3.4881 H         1 UNK         0.3204 
    126 H126       30.1967   31.6564    5.3517 H         1 UNK         0.0748 
    127 H127       30.4738   32.6635    7.5950 H         1 UNK         0.0771 
    128 H128       31.6737   33.7912    6.9884 H         1 UNK         0.0771 
    129 H129       30.0057   33.8911    6.4288 H         1 UNK         0.0771 
    130 H130       31.4942   29.9241    4.4685 H         1 UNK         0.2980 
    131 H131       34.1409   29.4034    5.4875 H         1 UNK         0.0545 
    132 H132       31.0128   28.8757    6.9516 H         1 UNK         0.3459 
    133 H133       31.5805   27.7480    8.1573 H         1 UNK         0.3459 
    134 H134       32.3165   27.4608    3.9966 H         1 UNK         0.0616 
    135 H135       33.2211   28.6909    3.1942 H         1 UNK         0.0616 
    136 H136       33.8933   26.1029    1.9414 H         1 UNK         0.0634 
    137 H137       35.0646   25.0467    2.6857 H         1 UNK         0.0634 
@<TRIPOS>BOND
     1    1    2 1    
     2    1   72 1    
     3    1   73 1    
     4    1   74 1    
     5    2    3 2    
     6    2    4 am   BACKBONE|DICT|INTERRES
     7    4    5 1    
     8    4   75 1    
     9    5    6 1    
    10    5   35 1    
    11    5   76 1    
    12    6    7 1    
    13    6   77 1    
    14    6   78 1    
    15    7    8 1    
    16    8    9 1    
    17    8   79 1    
    18    8   80 1    
    19    9   10 ar   
    20    9   14 ar   
    21   10   11 ar   
    22   10   81 1    
    23   11   12 ar   
    24   11   71 1    
    25   12   13 ar   
    26   12   82 1    
    27   13   14 ar   
    28   13   15 1    
    29   14   83 1    
    30   15   16 1    
    31   15   84 1    
    32   15   85 1    
    33   16   17 1    
    34   17   18 1    
    35   17   86 1    
    36   17   87 1    
    37   18   19 1    
    38   18   37 1    
    39   18   88 1    
    40   19   20 am   BACKBONE|DICT|INTERRES
    41   19   89 1    
    42   20   21 2    
    43   20   22 1    
    44   22   23 1    
    45   22   24 1    
    46   22   90 1    
    47   23   91 1    
    48   23   92 1    
    49   23   93 1    
    50   24   25 am   BACKBONE|DICT|INTERRES
    51   24   94 1    
    52   25   26 2    
    53   25   27 1    
    54   27   28 1    
    55   27   29 1    
    56   27   95 1    
    57   28   96 1    
    58   28   97 1    
    59   28   98 1    
    60   29   30 am   BACKBONE|DICT|INTERRES
    61   29   99 1    
    62   30   31 2    
    63   30   32 1    
    64   32   33 1    
    65   32   34 1    
    66   32  100 1    
    67   33  101 1    
    68   33  102 1    
    69   33  103 1    
    70   34   35 am   BACKBONE|DICT|INTERRES
    71   34  104 1    
    72   35   36 2    
    73   37   38 2    
    74   37   39 am   BACKBONE|DICT|INTERRES
    75   39   40 1    
    76   39  105 1    
    77   40   41 1    
    78   40   42 1    
    79   40  106 1    
    80   41  107 1    
    81   41  108 1    
    82   41  109 1    
    83   42   43 2    
    84   42   44 am   BACKBONE|DICT|INTERRES
    85   44   45 1    
    86   44  110 1    
    87   45   46 1    
    88   45   47 1    
    89   45  111 1    
    90   46  112 1    
    91   46  113 1    
    92   46  114 1    
    93   47   48 2    
    94   47   49 am   BACKBONE|DICT|INTERRES
    95   49   50 1    
    96   49  115 1    
    97   50   51 1    
    98   50   52 1    
    99   50  116 1    
   100   51  117 1    
   101   51  118 1    
   102   51  119 1    
   103   52   53 2    
   104   52   54 am   BACKBONE|DICT|INTERRES
   105   54   55 1    
   106   54  120 1    
   107   55   56 1    
   108   55   57 1    
   109   55  121 1    
   110   56  122 1    
   111   56  123 1    
   112   56  124 1    
   113   57   58 2    
   114   57   59 am   BACKBONE|DICT|INTERRES
   115   59   60 1    
   116   59  125 1    
   117   60   61 1    
   118   60   62 1    
   119   60  126 1    
   120   61  127 1    
   121   61  128 1    
   122   61  129 1    
   123   62   63 2    
   124   62   64 am   BACKBONE|DICT|INTERRES
   125   64   65 1    
   126   64  130 1    
   127   65   66 1    
   128   65   69 1    
   129   65  131 1    
   130   66   67 am   BACKBONE|DICT|INTERRES
   131   66   68 2    
   132   67  132 1    
   133   67  133 1    
   134   69   70 1    
   135   69  134 1    
   136   69  135 1    
   137   70   71 1    
   138   71  136 1    
   139   71  137 1    
@<TRIPOS>SUBSTRUCTURE
     1 UNK         1 GROUP             0       ****    0 ROOT    
