@<TRIPOS>MOLECULE
3R136
137   139    1
SMALL
USER_CHARGES


@<TRIPOS>ATOM
      1 CA         31.6856   21.9874    6.1825 C.3       0 UNK        -0.1979 
      2 C          30.6608   21.3990    5.2239 C.2       0 UNK         0.4864 
      3 O          29.6889   20.7858    5.6673 O.2       0 UNK        -0.5359 
      4 N          30.8739   21.5772    3.9138 N.am      1 UNK        -0.4318 
      5 CA         29.9742   21.1353    2.8419 C.3       1 UNK         0.0824 
      6 C6         30.6847   21.0660    1.4610 C.3       12 UNK        -0.0944 
      7 S7         31.7350   22.5103    1.0724 S.3       12 UNK        -0.2672 
      8 C8         30.6454   23.5014   -0.0080 C.3       12 UNK         0.0333 
      9 C9         31.1054   24.9449   -0.2265 C.ar      12 UNK        -0.0807 
     10 C10        31.9284   25.6113    0.6920 C.ar      12 UNK        -0.0894 
     11 C11        32.2682   26.9533    0.5065 C.ar      12 UNK        -0.0804 
     12 C12        31.7948   27.6342   -0.6134 C.ar      12 UNK        -0.0824 
     13 C13        30.9542   26.9978   -1.5265 C.ar      12 UNK        -0.0762 
     14 C14        30.6268   25.6494   -1.3381 C.ar      12 UNK        -0.0782 
     15 C15        30.3399   27.7996   -2.6660 C.3       12 UNK         0.0230 
     16 S16        29.1967   29.0830   -2.0449 S.3       12 UNK        -0.2608 
     17 C17        27.9922   28.0537   -1.1407 C.3       12 UNK        -0.0989 
     18 CA         27.0477   28.8351   -0.1967 C.3       5 UNK         0.0716 
     19 N          25.9719   27.9457    0.2252 N.am      5 UNK        -0.4135 
     20 C          24.6718   28.0633   -0.0624 C.2       4 UNK         0.5031 
     21 O          24.1926   29.0112   -0.6883 O.2       4 UNK        -0.5229 
     22 CA         23.7558   26.9164    0.4258 C.3       4 UNK         0.0329 
     23 CB         22.4312   26.8302   -0.3624 C.3       4 UNK        -0.2001 
     24 N          24.4315   25.6093    0.4584 N.am      4 UNK        -0.4303 
     25 C          25.0201   24.9734   -0.5690 C.2       3 UNK         0.5044 
     26 O          24.9523   25.3560   -1.7384 O.2       3 UNK        -0.5152 
     27 CA         25.8475   23.7124   -0.2299 C.3       3 UNK         0.0319 
     28 CB         26.9989   23.4898   -1.2340 C.3       3 UNK        -0.2001 
     29 N          26.3747   23.6673    1.1436 N.am      3 UNK        -0.4354 
     30 C          27.1561   24.5718    1.7531 C.2       2 UNK         0.4964 
     31 O          27.4848   25.6416    1.2468 O.2       2 UNK        -0.5047 
     32 CA         27.6430   24.2341    3.1721 C.3       2 UNK         0.0288 
     33 CB         26.4876   23.8515    4.1204 C.3       2 UNK        -0.2113 
     34 N          28.7136   23.2307    3.1891 N.am      2 UNK        -0.4145 
     35 C          28.6679   21.9546    2.7715 C.2       1 UNK         0.5006 
     36 O          27.6503   21.4066    2.3427 O.2       1 UNK        -0.5103 
     37 C          27.7642   29.3458    1.0706 C.2       5 UNK         0.5055 
     38 O          27.6939   28.7032    2.1222 O.2       5 UNK        -0.5220 
     39 N          28.4285   30.5018    0.9605 N.am      6 UNK        -0.4450 
     40 CA         29.1398   31.1538    2.0626 C.3       6 UNK         0.0367 
     41 CB         28.1543   31.9741    2.9202 C.3       6 UNK        -0.1929 
     42 C          30.3210   31.9927    1.5498 C.2       6 UNK         0.5070 
     43 O          30.6446   33.0153    2.1544 O.2       6 UNK        -0.5237 
     44 N          30.9592   31.5602    0.4506 N.am      7 UNK        -0.4739 
     45 CA         32.0374   32.2943   -0.2315 C.3       7 UNK         0.0276 
     46 CB         32.4134   31.5719   -1.5352 C.3       7 UNK        -0.1927 
     47 C          33.2954   32.5441    0.6245 C.2       7 UNK         0.5013 
     48 O          33.9836   33.5400    0.3984 O.2       7 UNK        -0.5193 
     49 N          33.5572   31.6576    1.5936 N.am      8 UNK        -0.4253 
     50 CA         34.6268   31.7794    2.5890 C.3       8 UNK         0.0242 
     51 CB         35.5301   30.5345    2.5093 C.3       8 UNK        -0.2000 
     52 C          34.0628   31.9713    4.0104 C.2       8 UNK         0.4948 
     53 O          34.8027   31.7795    4.9776 O.2       8 UNK        -0.5275 
     54 N          32.7715   32.3235    4.1256 N.am      9 UNK        -0.4246 
     55 CA         31.9673   32.4871    5.3441 C.3       9 UNK         0.0261 
     56 CB         32.4967   33.6319    6.2312 C.3       9 UNK        -0.1959 
     57 C          31.7789   31.1853    6.1426 C.2       9 UNK         0.5033 
     58 O          30.6498   30.7100    6.2700 O.2       9 UNK        -0.5390 
     59 N          32.8786   30.6130    6.6459 N.am      10 UNK        -0.4215 
     60 CA         32.9309   29.3805    7.4384 C.3       10 UNK         0.0240 
     61 CB         34.1918   29.4155    8.3225 C.3       10 UNK        -0.1982 
     62 C          32.8605   28.1213    6.5507 C.2       10 UNK         0.4970 
     63 O          33.7195   27.2431    6.6482 O.2       10 UNK        -0.4916 
     64 N          31.8466   28.0730    5.6828 N.am      11 UNK        -0.4279 
     65 CA         31.6289   27.0185    4.6828 C.3       11 UNK         0.1003 
     66 C          30.8593   25.7746    5.2060 C.2       11 UNK         0.5709 
     67 N          30.3210   25.7835    6.4193 N.am      11 UNK        -0.7358 
     68 O          30.7637   24.7743    4.4986 O.2       11 UNK        -0.4999 
     69 C69        30.9650   27.6025    3.4124 C.3       12 UNK        -0.0954 
     70 S70        32.0606   28.7911    2.5643 S.3       12 UNK        -0.2268 
     71 C71        33.0955   27.6903    1.5455 C.3       12 UNK         0.0203 
     72 H72        32.1603   21.1949    6.7603 H         1 UNK         0.0888 
     73 H73        32.4641   22.5395    5.6556 H         1 UNK         0.0888 
     74 H74        31.1993   22.6732    6.8755 H         1 UNK         0.0888 
     75 H75        31.6795   22.1041    3.6044 H         1 UNK         0.3017 
     76 H76        29.6652   20.1167    3.0878 H         1 UNK         0.0873 
     77 H77        29.9716   20.8948    0.6516 H         1 UNK         0.0745 
     78 H78        31.3397   20.1935    1.4509 H         1 UNK         0.0745 
     79 H79        30.5570   22.9901   -0.9678 H         1 UNK         0.0705 
     80 H80        29.6454   23.5314    0.4228 H         1 UNK         0.0705 
     81 H81        32.2769   25.1071    1.5819 H         1 UNK         0.1334 
     82 H82        32.0315   28.6787   -0.7423 H         1 UNK         0.1417 
     83 H83        29.9619   25.1590   -2.0359 H         1 UNK         0.1562 
     84 H84        29.8043   27.1477   -3.3579 H         1 UNK         0.0748 
     85 H85        31.1340   28.2772   -3.2418 H         1 UNK         0.0748 
     86 H86        28.5111   27.2805   -0.5731 H         1 UNK         0.0940 
     87 H87        27.4052   27.5212   -1.8917 H         1 UNK         0.0940 
     88 H88        26.6345   29.6945   -0.7287 H         1 UNK         0.0703 
     89 H89        26.2936   27.1545    0.7765 H         1 UNK         0.3081 
     90 H90        23.5066   27.1549    1.4607 H         1 UNK         0.0719 
     91 H91        22.6028   26.6590   -1.4255 H         1 UNK         0.0809 
     92 H92        21.7994   26.0238    0.0098 H         1 UNK         0.0809 
     93 H93        21.8603   27.7550   -0.2712 H         1 UNK         0.0809 
     94 H94        24.5457   25.1998    1.3749 H         1 UNK         0.2990 
     95 H95        25.1610   22.8695   -0.3196 H         1 UNK         0.0690 
     96 H96        26.6202   23.3687   -2.2496 H         1 UNK         0.0788 
     97 H97        27.6899   24.3333   -1.2422 H         1 UNK         0.0788 
     98 H98        27.5671   22.5911   -0.9936 H         1 UNK         0.0788 
     99 H99        26.2354   22.7923    1.6375 H         1 UNK         0.2993 
    100 H100       28.0906   25.1490    3.5647 H         1 UNK         0.0949 
    101 H101       26.0069   22.9142    3.8401 H         1 UNK         0.0767 
    102 H102       26.8451   23.7441    5.1447 H         1 UNK         0.0767 
    103 H103       25.7177   24.6241    4.1275 H         1 UNK         0.0767 
    104 H104       29.6038   23.5808    3.5364 H         1 UNK         0.3013 
    105 H105       28.4500   30.9767    0.0674 H         1 UNK         0.3121 
    106 H106       29.5783   30.3875    2.7038 H         1 UNK         0.0774 
    107 H107       27.7023   32.7840    2.3467 H         1 UNK         0.0815 
    108 H108       28.6563   32.4197    3.7800 H         1 UNK         0.0815 
    109 H109       27.3509   31.3498    3.3112 H         1 UNK         0.0815 
    110 H110       30.6612   30.6914    0.0298 H         1 UNK         0.2987 
    111 H111       31.6341   33.2745   -0.4954 H         1 UNK         0.0949 
    112 H112       32.9273   30.6306   -1.3445 H         1 UNK         0.0806 
    113 H113       31.5374   31.3654   -2.1505 H         1 UNK         0.0806 
    114 H114       33.0883   32.1860   -2.1330 H         1 UNK         0.0806 
    115 H115       32.9324   30.8687    1.7026 H         1 UNK         0.3010 
    116 H116       35.2425   32.6562    2.3792 H         1 UNK         0.0829 
    117 H117       36.4099   30.6495    3.1437 H         1 UNK         0.0813 
    118 H118       35.0101   29.6353    2.8400 H         1 UNK         0.0813 
    119 H119       35.8864   30.3648    1.4933 H         1 UNK         0.0813 
    120 H120       32.2536   32.4918    3.2686 H         1 UNK         0.3038 
    121 H121       30.9754   32.7835    4.9990 H         1 UNK         0.0769 
    122 H122       33.4990   33.4345    6.6117 H         1 UNK         0.0811 
    123 H123       31.8480   33.7849    7.0946 H         1 UNK         0.0811 
    124 H124       32.5291   34.5723    5.6811 H         1 UNK         0.0811 
    125 H125       33.7683   31.0204    6.3643 H         1 UNK         0.3204 
    126 H126       32.0626   29.3534    8.1001 H         1 UNK         0.0748 
    127 H127       34.2454   28.5361    8.9658 H         1 UNK         0.0771 
    128 H128       35.1030   29.4401    7.7232 H         1 UNK         0.0771 
    129 H129       34.1951   30.2903    8.9730 H         1 UNK         0.0771 
    130 H130       31.1865   28.8431    5.6822 H         1 UNK         0.2980 
    131 H131       32.6054   26.6309    4.3877 H         1 UNK         0.0545 
    132 H132       30.3998   26.5973    7.0070 H         1 UNK         0.3459 
    133 H133       29.8260   24.9702    6.7463 H         1 UNK         0.3459 
    134 H134       30.0405   28.1190    3.6755 H         1 UNK         0.0616 
    135 H135       30.6661   26.8203    2.7155 H         1 UNK         0.0616 
    136 H136       33.6280   26.9897    2.1900 H         1 UNK         0.0634 
    137 H137       33.8586   28.2860    1.0429 H         1 UNK         0.0634 
@<TRIPOS>BOND
     1    1    2 1    
     2    1   72 1    
     3    1   73 1    
     4    1   74 1    
     5    2    3 2    
     6    2    4 am   BACKBONE|DICT|INTERRES
     7    4    5 1    
     8    4   75 1    
     9    5    6 1    
    10    5   35 1    
    11    5   76 1    
    12    6    7 1    
    13    6   77 1    
    14    6   78 1    
    15    7    8 1    
    16    8    9 1    
    17    8   79 1    
    18    8   80 1    
    19    9   10 ar   
    20    9   14 ar   
    21   10   11 ar   
    22   10   81 1    
    23   11   12 ar   
    24   11   71 1    
    25   12   13 ar   
    26   12   82 1    
    27   13   14 ar   
    28   13   15 1    
    29   14   83 1    
    30   15   16 1    
    31   15   84 1    
    32   15   85 1    
    33   16   17 1    
    34   17   18 1    
    35   17   86 1    
    36   17   87 1    
    37   18   19 1    
    38   18   37 1    
    39   18   88 1    
    40   19   20 am   BACKBONE|DICT|INTERRES
    41   19   89 1    
    42   20   21 2    
    43   20   22 1    
    44   22   23 1    
    45   22   24 1    
    46   22   90 1    
    47   23   91 1    
    48   23   92 1    
    49   23   93 1    
    50   24   25 am   BACKBONE|DICT|INTERRES
    51   24   94 1    
    52   25   26 2    
    53   25   27 1    
    54   27   28 1    
    55   27   29 1    
    56   27   95 1    
    57   28   96 1    
    58   28   97 1    
    59   28   98 1    
    60   29   30 am   BACKBONE|DICT|INTERRES
    61   29   99 1    
    62   30   31 2    
    63   30   32 1    
    64   32   33 1    
    65   32   34 1    
    66   32  100 1    
    67   33  101 1    
    68   33  102 1    
    69   33  103 1    
    70   34   35 am   BACKBONE|DICT|INTERRES
    71   34  104 1    
    72   35   36 2    
    73   37   38 2    
    74   37   39 am   BACKBONE|DICT|INTERRES
    75   39   40 1    
    76   39  105 1    
    77   40   41 1    
    78   40   42 1    
    79   40  106 1    
    80   41  107 1    
    81   41  108 1    
    82   41  109 1    
    83   42   43 2    
    84   42   44 am   BACKBONE|DICT|INTERRES
    85   44   45 1    
    86   44  110 1    
    87   45   46 1    
    88   45   47 1    
    89   45  111 1    
    90   46  112 1    
    91   46  113 1    
    92   46  114 1    
    93   47   48 2    
    94   47   49 am   BACKBONE|DICT|INTERRES
    95   49   50 1    
    96   49  115 1    
    97   50   51 1    
    98   50   52 1    
    99   50  116 1    
   100   51  117 1    
   101   51  118 1    
   102   51  119 1    
   103   52   53 2    
   104   52   54 am   BACKBONE|DICT|INTERRES
   105   54   55 1    
   106   54  120 1    
   107   55   56 1    
   108   55   57 1    
   109   55  121 1    
   110   56  122 1    
   111   56  123 1    
   112   56  124 1    
   113   57   58 2    
   114   57   59 am   BACKBONE|DICT|INTERRES
   115   59   60 1    
   116   59  125 1    
   117   60   61 1    
   118   60   62 1    
   119   60  126 1    
   120   61  127 1    
   121   61  128 1    
   122   61  129 1    
   123   62   63 2    
   124   62   64 am   BACKBONE|DICT|INTERRES
   125   64   65 1    
   126   64  130 1    
   127   65   66 1    
   128   65   69 1    
   129   65  131 1    
   130   66   67 am   BACKBONE|DICT|INTERRES
   131   66   68 2    
   132   67  132 1    
   133   67  133 1    
   134   69   70 1    
   135   69  134 1    
   136   69  135 1    
   137   70   71 1    
   138   71  136 1    
   139   71  137 1    
@<TRIPOS>SUBSTRUCTURE
     1 UNK         1 GROUP             0       ****    0 ROOT    
