@<TRIPOS>MOLECULE
3R136
137   139    1
SMALL
USER_CHARGES


@<TRIPOS>ATOM
      1 CA         27.6135   25.5536    7.0796 C.3       0 UNK        -0.1979 
      2 C          27.3529   24.4493    6.0687 C.2       0 UNK         0.4864 
      3 O          27.2901   23.2787    6.4482 O.2       0 UNK        -0.5359 
      4 N          27.1929   24.8095    4.7916 N.am      1 UNK        -0.4318 
      5 CA         26.8787   23.8886    3.7001 C.3       1 UNK         0.0824 
      6 C6         28.1488   23.2050    3.1174 C.3       12 UNK        -0.0944 
      7 S7         29.2165   24.2759    2.0940 S.3       12 UNK        -0.2672 
      8 C8         30.3700   24.9435    3.3337 C.3       12 UNK         0.0333 
      9 C9         31.3078   25.9578    2.6993 C.ar      12 UNK        -0.0807 
     10 C10        32.6646   25.6691    2.5244 C.ar      12 UNK        -0.0894 
     11 C11        33.5145   26.5987    1.9148 C.ar      12 UNK        -0.0804 
     12 C12        32.9970   27.8255    1.4855 C.ar      12 UNK        -0.0824 
     13 C13        31.6375   28.1183    1.6429 C.ar      12 UNK        -0.0762 
     14 C14        30.8040   27.1853    2.2629 C.ar      12 UNK        -0.0782 
     15 C15        31.0544   29.4108    1.0899 C.3       12 UNK         0.0230 
     16 S16        31.1156   29.3819   -0.7266 S.3       12 UNK        -0.2608 
     17 C17        29.9098   30.6654   -1.2247 C.3       12 UNK        -0.0989 
     18 CA         28.6354   30.1101   -1.9294 C.3       5 UNK         0.0716 
     19 N          28.9252   28.9223   -2.7369 N.am      5 UNK        -0.4135 
     20 C          28.1183   28.3091   -3.6103 C.2       4 UNK         0.5031 
     21 O          27.0049   28.7232   -3.9351 O.2       4 UNK        -0.5229 
     22 CA         28.6458   26.9932   -4.2164 C.3       4 UNK         0.0329 
     23 CB         30.1884   26.8846   -4.2114 C.3       4 UNK        -0.2001 
     24 N          28.0625   25.7980   -3.5920 N.am      4 UNK        -0.4303 
     25 C          28.0113   25.4934   -2.2859 C.2       3 UNK         0.5044 
     26 O          28.4006   26.2309   -1.3771 O.2       3 UNK        -0.5152 
     27 CA         27.4939   24.0879   -1.9458 C.3       3 UNK         0.0319 
     28 CB         28.6740   23.1264   -1.7305 C.3       3 UNK        -0.2001 
     29 N          26.6602   24.0928   -0.7442 N.am      3 UNK        -0.4354 
     30 C          25.3778   24.4811   -0.7164 C.2       2 UNK         0.4964 
     31 O          24.7765   24.8918   -1.7096 O.2       2 UNK        -0.5047 
     32 CA         24.6150   24.3651    0.6179 C.3       2 UNK         0.0288 
     33 CB         23.3941   23.4402    0.4641 C.3       2 UNK        -0.2113 
     34 N          25.4487   23.8550    1.7121 N.am      2 UNK        -0.4145 
     35 C          26.0177   24.6193    2.6527 C.2       1 UNK         0.5006 
     36 O          25.8828   25.8433    2.7122 O.2       1 UNK        -0.5103 
     37 C          27.4577   29.9192   -0.9483 C.2       5 UNK         0.5055 
     38 O          26.8104   30.9149   -0.6204 O.2       5 UNK        -0.5220 
     39 N          27.1790   28.6700   -0.5365 N.am      6 UNK        -0.4450 
     40 CA         26.0254   28.2298    0.2591 C.3       6 UNK         0.0367 
     41 CB         24.7438   28.2751   -0.5985 C.3       6 UNK        -0.1929 
     42 C          25.8826   28.9964    1.5879 C.2       6 UNK         0.5070 
     43 O          24.8501   29.6203    1.8447 O.2       6 UNK        -0.5237 
     44 N          26.9505   28.9659    2.3881 N.am      7 UNK        -0.4739 
     45 CA         27.0809   29.6828    3.6523 C.3       7 UNK         0.0276 
     46 CB         27.6587   31.0878    3.3771 C.3       7 UNK        -0.1927 
     47 C          27.9454   28.8579    4.6169 C.2       7 UNK         0.5013 
     48 O          28.1331   27.6567    4.4037 O.2       7 UNK        -0.5193 
     49 N          28.4578   29.5156    5.6645 N.am      8 UNK        -0.4253 
     50 CA         29.4479   28.9645    6.5894 C.3       8 UNK         0.0242 
     51 CB         29.6158   29.9258    7.7772 C.3       8 UNK        -0.2000 
     52 C          30.7982   28.7390    5.8915 C.2       8 UNK         0.4948 
     53 O          31.1615   29.5078    4.9962 O.2       8 UNK        -0.5275 
     54 N          31.5438   27.7258    6.3499 N.am      9 UNK        -0.4246 
     55 CA         32.8719   27.3635    5.8477 C.3       9 UNK         0.0261 
     56 CB         33.1738   25.9017    6.2253 C.3       9 UNK        -0.1959 
     57 C          33.9622   28.3436    6.3243 C.2       9 UNK         0.5033 
     58 O          34.8880   27.9522    7.0363 O.2       9 UNK        -0.5390 
     59 N          33.8232   29.6106    5.9176 N.am      10 UNK        -0.4215 
     60 CA         34.7625   30.7073    6.1714 C.3       10 UNK         0.0240 
     61 CB         34.0089   32.0400    6.0209 C.3       10 UNK        -0.1982 
     62 C          36.0032   30.6732    5.2559 C.2       10 UNK         0.4970 
     63 O          36.9092   31.4869    5.4421 O.2       10 UNK        -0.4916 
     64 N          36.0114   29.7585    4.2790 N.am      11 UNK        -0.4279 
     65 CA         37.1044   29.4788    3.3423 C.3       11 UNK         0.1003 
     66 C          38.4478   29.0798    4.0209 C.2       11 UNK         0.5709 
     67 N          39.5684   29.3105    3.3493 N.am      11 UNK        -0.7358 
     68 O          38.4869   28.5405    5.1257 O.2       11 UNK        -0.4999 
     69 C69        36.6544   28.4365    2.2833 C.3       12 UNK        -0.0954 
     70 S70        36.0597   26.8591    2.9956 S.3       12 UNK        -0.2268 
     71 C71        34.9752   26.2465    1.6711 C.3       12 UNK         0.0203 
     72 H72        27.1098   25.3337    8.0207 H         1 UNK         0.0888 
     73 H73        28.6820   25.6362    7.2742 H         1 UNK         0.0888 
     74 H74        27.2440   26.5138    6.7213 H         1 UNK         0.0888 
     75 H75        27.2499   25.7878    4.5145 H         1 UNK         0.3017 
     76 H76        26.2357   23.1041    4.1059 H         1 UNK         0.0873 
     77 H77        28.7444   22.7704    3.9218 H         1 UNK         0.0745 
     78 H78        27.8538   22.3580    2.4962 H         1 UNK         0.0745 
     79 H79        29.8140   25.4274    4.1371 H         1 UNK         0.0705 
     80 H80        30.9295   24.1243    3.7875 H         1 UNK         0.0705 
     81 H81        33.0571   24.7151    2.8489 H         1 UNK         0.1334 
     82 H82        33.6394   28.5384    0.9881 H         1 UNK         0.1417 
     83 H83        29.7507   27.3936    2.3808 H         1 UNK         0.1562 
     84 H84        31.6166   30.2661    1.4673 H         1 UNK         0.0748 
     85 H85        30.0220   29.5397    1.4188 H         1 UNK         0.0748 
     86 H86        30.4325   31.3217   -1.9223 H         1 UNK         0.0940 
     87 H87        29.6622   31.3036   -0.3735 H         1 UNK         0.0940 
     88 H88        28.2992   30.8754   -2.6324 H         1 UNK         0.0703 
     89 H89        29.8039   28.4747   -2.5153 H         1 UNK         0.3081 
     90 H90        28.3218   26.9896   -5.2584 H         1 UNK         0.0719 
     91 H91        30.6492   27.7644   -4.6631 H         1 UNK         0.0809 
     92 H92        30.5182   26.0220   -4.7906 H         1 UNK         0.0809 
     93 H93        30.5950   26.7737   -3.2052 H         1 UNK         0.0809 
     94 H94        27.6816   25.1243   -4.2420 H         1 UNK         0.2990 
     95 H95        26.8971   23.7145   -2.7812 H         1 UNK         0.0690 
     96 H96        29.3145   23.4520   -0.9095 H         1 UNK         0.0788 
     97 H97        29.2972   23.0666   -2.6237 H         1 UNK         0.0788 
     98 H98        28.3295   22.1163   -1.5078 H         1 UNK         0.0788 
     99 H99        27.1154   23.8433    0.1213 H         1 UNK         0.2993 
    100 H100       24.2482   25.3650    0.8598 H         1 UNK         0.0949 
    101 H101       23.6865   22.4272    0.1846 H         1 UNK         0.0767 
    102 H102       22.8229   23.3816    1.3909 H         1 UNK         0.0767 
    103 H103       22.7160   23.8085   -0.3072 H         1 UNK         0.0767 
    104 H104       25.5989   22.8559    1.7328 H         1 UNK         0.3013 
    105 H105       27.7837   27.9153   -0.8591 H         1 UNK         0.3121 
    106 H106       26.2167   27.1877    0.5132 H         1 UNK         0.0774 
    107 H107       23.8961   27.8560   -0.0555 H         1 UNK         0.0815 
    108 H108       24.4811   29.2956   -0.8790 H         1 UNK         0.0815 
    109 H109       24.8612   27.6972   -1.5153 H         1 UNK         0.0815 
    110 H110       27.7105   28.3380    2.1673 H         1 UNK         0.2987 
    111 H111       26.0970   29.7821    4.1159 H         1 UNK         0.0949 
    112 H112       28.6950   31.0374    3.0401 H         1 UNK         0.0806 
    113 H113       27.0865   31.6075    2.6078 H         1 UNK         0.0806 
    114 H114       27.6298   31.7168    4.2671 H         1 UNK         0.0806 
    115 H115       28.2737   30.5043    5.7452 H         1 UNK         0.3010 
    116 H116       29.0788   28.0092    6.9613 H         1 UNK         0.0829 
    117 H117       29.9864   30.9011    7.4582 H         1 UNK         0.0813 
    118 H118       30.3268   29.5308    8.5043 H         1 UNK         0.0813 
    119 H119       28.6721   30.0794    8.3009 H         1 UNK         0.0813 
    120 H120       31.1981   27.1790    7.1251 H         1 UNK         0.3038 
    121 H121       32.8529   27.4232    4.7580 H         1 UNK         0.0769 
    122 H122       33.2072   25.7600    7.3061 H         1 UNK         0.0811 
    123 H123       34.1391   25.5897    5.8236 H         1 UNK         0.0811 
    124 H124       32.4232   25.2241    5.8185 H         1 UNK         0.0811 
    125 H125       32.9836   29.8299    5.3834 H         1 UNK         0.3204 
    126 H126       35.1183   30.6278    7.2007 H         1 UNK         0.0748 
    127 H127       33.1610   32.0952    6.7041 H         1 UNK         0.0771 
    128 H128       34.6590   32.8870    6.2451 H         1 UNK         0.0771 
    129 H129       33.6314   32.1770    5.0066 H         1 UNK         0.0771 
    130 H130       35.2349   29.1178    4.2297 H         1 UNK         0.2980 
    131 H131       37.2918   30.4175    2.8174 H         1 UNK         0.0545 
    132 H132       39.5525   29.7417    2.4381 H         1 UNK         0.3459 
    133 H133       40.4493   29.0493    3.7639 H         1 UNK         0.3459 
    134 H134       35.8563   28.8702    1.6805 H         1 UNK         0.0616 
    135 H135       37.4636   28.2190    1.5839 H         1 UNK         0.0616 
    136 H136       35.3036   26.6350    0.7059 H         1 UNK         0.0634 
    137 H137       35.0883   25.1631    1.6098 H         1 UNK         0.0634 
@<TRIPOS>BOND
     1    1    2 1    
     2    1   72 1    
     3    1   73 1    
     4    1   74 1    
     5    2    3 2    
     6    2    4 am   BACKBONE|DICT|INTERRES
     7    4    5 1    
     8    4   75 1    
     9    5    6 1    
    10    5   35 1    
    11    5   76 1    
    12    6    7 1    
    13    6   77 1    
    14    6   78 1    
    15    7    8 1    
    16    8    9 1    
    17    8   79 1    
    18    8   80 1    
    19    9   10 ar   
    20    9   14 ar   
    21   10   11 ar   
    22   10   81 1    
    23   11   12 ar   
    24   11   71 1    
    25   12   13 ar   
    26   12   82 1    
    27   13   14 ar   
    28   13   15 1    
    29   14   83 1    
    30   15   16 1    
    31   15   84 1    
    32   15   85 1    
    33   16   17 1    
    34   17   18 1    
    35   17   86 1    
    36   17   87 1    
    37   18   19 1    
    38   18   37 1    
    39   18   88 1    
    40   19   20 am   BACKBONE|DICT|INTERRES
    41   19   89 1    
    42   20   21 2    
    43   20   22 1    
    44   22   23 1    
    45   22   24 1    
    46   22   90 1    
    47   23   91 1    
    48   23   92 1    
    49   23   93 1    
    50   24   25 am   BACKBONE|DICT|INTERRES
    51   24   94 1    
    52   25   26 2    
    53   25   27 1    
    54   27   28 1    
    55   27   29 1    
    56   27   95 1    
    57   28   96 1    
    58   28   97 1    
    59   28   98 1    
    60   29   30 am   BACKBONE|DICT|INTERRES
    61   29   99 1    
    62   30   31 2    
    63   30   32 1    
    64   32   33 1    
    65   32   34 1    
    66   32  100 1    
    67   33  101 1    
    68   33  102 1    
    69   33  103 1    
    70   34   35 am   BACKBONE|DICT|INTERRES
    71   34  104 1    
    72   35   36 2    
    73   37   38 2    
    74   37   39 am   BACKBONE|DICT|INTERRES
    75   39   40 1    
    76   39  105 1    
    77   40   41 1    
    78   40   42 1    
    79   40  106 1    
    80   41  107 1    
    81   41  108 1    
    82   41  109 1    
    83   42   43 2    
    84   42   44 am   BACKBONE|DICT|INTERRES
    85   44   45 1    
    86   44  110 1    
    87   45   46 1    
    88   45   47 1    
    89   45  111 1    
    90   46  112 1    
    91   46  113 1    
    92   46  114 1    
    93   47   48 2    
    94   47   49 am   BACKBONE|DICT|INTERRES
    95   49   50 1    
    96   49  115 1    
    97   50   51 1    
    98   50   52 1    
    99   50  116 1    
   100   51  117 1    
   101   51  118 1    
   102   51  119 1    
   103   52   53 2    
   104   52   54 am   BACKBONE|DICT|INTERRES
   105   54   55 1    
   106   54  120 1    
   107   55   56 1    
   108   55   57 1    
   109   55  121 1    
   110   56  122 1    
   111   56  123 1    
   112   56  124 1    
   113   57   58 2    
   114   57   59 am   BACKBONE|DICT|INTERRES
   115   59   60 1    
   116   59  125 1    
   117   60   61 1    
   118   60   62 1    
   119   60  126 1    
   120   61  127 1    
   121   61  128 1    
   122   61  129 1    
   123   62   63 2    
   124   62   64 am   BACKBONE|DICT|INTERRES
   125   64   65 1    
   126   64  130 1    
   127   65   66 1    
   128   65   69 1    
   129   65  131 1    
   130   66   67 am   BACKBONE|DICT|INTERRES
   131   66   68 2    
   132   67  132 1    
   133   67  133 1    
   134   69   70 1    
   135   69  134 1    
   136   69  135 1    
   137   70   71 1    
   138   71  136 1    
   139   71  137 1    
@<TRIPOS>SUBSTRUCTURE
     1 UNK         1 GROUP             0       ****    0 ROOT    
