@<TRIPOS>MOLECULE
3R136
137   139    1
SMALL
USER_CHARGES


@<TRIPOS>ATOM
      1 CA         31.8616   27.0354   -3.5367 C.3       0 UNK        -0.1979 
      2 C          30.8906   26.2703   -2.6497 C.2       0 UNK         0.4864 
      3 O          30.9365   25.0401   -2.6185 O.2       0 UNK        -0.5359 
      4 N          30.0145   26.9958   -1.9388 N.am      1 UNK        -0.4318 
      5 CA         29.0177   26.4821   -0.9852 C.3       1 UNK         0.0824 
      6 C6         29.6422   25.7973    0.2610 C.3       12 UNK        -0.0944 
      7 S7         30.7409   26.9107    1.1979 S.3       12 UNK        -0.2672 
      8 C8         31.9888   25.7352    1.8071 C.3       12 UNK         0.0333 
      9 C9         31.6093   25.1934    3.1769 C.ar      12 UNK        -0.0807 
     10 C10        32.2196   25.7172    4.3188 C.ar      12 UNK        -0.0894 
     11 C11        31.8800   25.2466    5.5899 C.ar      12 UNK        -0.0804 
     12 C12        30.9137   24.2440    5.7130 C.ar      12 UNK        -0.0824 
     13 C13        30.3041   23.6965    4.5775 C.ar      12 UNK        -0.0762 
     14 C14        30.6640   24.1699    3.3098 C.ar      12 UNK        -0.0782 
     15 C15        29.2850   22.5693    4.7334 C.3       12 UNK         0.0230 
     16 S16        27.6400   22.9496    4.0351 S.3       12 UNK        -0.2608 
     17 C17        27.2619   24.5708    4.7788 C.3       12 UNK        -0.0989 
     18 CA         27.3067   25.6700    3.6903 C.3       5 UNK         0.0716 
     19 N          26.0790   25.7074    2.8880 N.am      5 UNK        -0.4135 
     20 C          25.9130   26.4660    1.7977 C.2       4 UNK         0.5031 
     21 O          26.8037   27.1577    1.3038 O.2       4 UNK        -0.5229 
     22 CA         24.5327   26.4362    1.1376 C.3       4 UNK         0.0329 
     23 CB         24.1388   27.8196    0.5792 C.3       4 UNK        -0.2001 
     24 N          24.5425   25.4431    0.0664 N.am      4 UNK        -0.4303 
     25 C          23.4460   24.8799   -0.4595 C.2       3 UNK         0.5044 
     26 O          22.3065   25.1082   -0.0480 O.2       3 UNK        -0.5152 
     27 CA         23.6434   23.8891   -1.6285 C.3       3 UNK         0.0319 
     28 CB         22.4117   23.8096   -2.5564 C.3       3 UNK        -0.2001 
     29 N          24.8664   24.1204   -2.4078 N.am      3 UNK        -0.4354 
     30 C          25.1996   25.2171   -3.1053 C.2       2 UNK         0.4964 
     31 O          24.4830   26.2119   -3.2295 O.2       2 UNK        -0.5047 
     32 CA         26.6048   25.2078   -3.7355 C.3       2 UNK         0.0288 
     33 CB         26.5987   25.8219   -5.1468 C.3       2 UNK        -0.2113 
     34 N          27.5852   25.9189   -2.9100 N.am      2 UNK        -0.4145 
     35 C          27.9328   25.6035   -1.6520 C.2       1 UNK         0.5006 
     36 O          27.4303   24.6661   -1.0263 O.2       1 UNK        -0.5103 
     37 C          27.6407   27.0479    4.2899 C.2       5 UNK         0.5055 
     38 O          26.7368   27.7732    4.7109 O.2       5 UNK        -0.5220 
     39 N          28.9433   27.3596    4.3015 N.am      6 UNK        -0.4450 
     40 CA         29.5764   28.6034    4.7499 C.3       6 UNK         0.0367 
     41 CB         29.1965   28.9468    6.2059 C.3       6 UNK        -0.1929 
     42 C          29.3788   29.8093    3.8138 C.2       6 UNK         0.5070 
     43 O          29.9321   30.8688    4.1083 O.2       6 UNK        -0.5237 
     44 N          28.6601   29.6558    2.6898 N.am      7 UNK        -0.4739 
     45 CA         28.3908   30.7380    1.7315 C.3       7 UNK         0.0276 
     46 CB         27.3546   30.2735    0.6976 C.3       7 UNK        -0.1927 
     47 C          29.6480   31.2850    1.0301 C.2       7 UNK         0.5013 
     48 O          29.6609   32.4550    0.6466 O.2       7 UNK        -0.5193 
     49 N          30.6876   30.4481    0.9023 N.am      8 UNK        -0.4253 
     50 CA         32.0066   30.8365    0.3945 C.3       8 UNK         0.0242 
     51 CB         32.7280   29.5857   -0.1381 C.3       8 UNK        -0.2000 
     52 C          32.8833   31.5506    1.4438 C.2       8 UNK         0.4948 
     53 O          33.9446   32.0541    1.0745 O.2       8 UNK        -0.5275 
     54 N          32.4624   31.5528    2.7219 N.am      9 UNK        -0.4246 
     55 CA         33.1761   32.0771    3.8975 C.3       9 UNK         0.0261 
     56 CB         33.3011   33.6138    3.8247 C.3       9 UNK        -0.1959 
     57 C          34.5276   31.3783    4.1641 C.2       9 UNK         0.5033 
     58 O          35.4406   31.9914    4.7198 O.2       9 UNK        -0.5390 
     59 N          34.6311   30.1044    3.7619 N.am      10 UNK        -0.4215 
     60 CA         35.8487   29.2920    3.8311 C.3       10 UNK         0.0240 
     61 CB         35.7675   28.2059    2.7437 C.3       10 UNK        -0.1982 
     62 C          36.1019   28.6528    5.2095 C.2       10 UNK         0.4970 
     63 O          37.1836   28.1005    5.4156 O.2       10 UNK        -0.4916 
     64 N          35.1057   28.6915    6.1032 N.am      11 UNK        -0.4279 
     65 CA         35.1259   28.0507    7.4266 C.3       11 UNK         0.1003 
     66 C          36.1956   28.6433    8.3847 C.2       11 UNK         0.5709 
     67 N          36.7708   27.8247    9.2555 N.am      11 UNK        -0.7358 
     68 O          36.4745   29.8411    8.3764 O.2       11 UNK        -0.4999 
     69 C69        33.7250   28.0551    8.1008 C.3       12 UNK        -0.0954 
     70 S70        32.3580   27.5894    6.9867 S.3       12 UNK        -0.2268 
     71 C71        32.5954   25.7942    6.8184 C.3       12 UNK         0.0203 
     72 H72        31.7528   26.7185   -4.5736 H         1 UNK         0.0888 
     73 H73        31.6963   28.1118   -3.4921 H         1 UNK         0.0888 
     74 H74        32.8870   26.8378   -3.2251 H         1 UNK         0.0888 
     75 H75        30.0391   28.0021   -2.0237 H         1 UNK         0.3017 
     76 H76        28.4817   27.3619   -0.6324 H         1 UNK         0.0873 
     77 H77        28.8641   25.4589    0.9420 H         1 UNK         0.0745 
     78 H78        30.1829   24.8992   -0.0394 H         1 UNK         0.0745 
     79 H79        32.9476   26.2530    1.8595 H         1 UNK         0.0705 
     80 H80        32.1344   24.9167    1.1013 H         1 UNK         0.0705 
     81 H81        32.9659   26.4940    4.2230 H         1 UNK         0.1334 
     82 H82        30.6523   23.8732    6.6949 H         1 UNK         0.1417 
     83 H83        30.2000   23.7471    2.4289 H         1 UNK         0.1562 
     84 H84        29.1574   22.3086    5.7852 H         1 UNK         0.0748 
     85 H85        29.6729   21.6742    4.2455 H         1 UNK         0.0748 
     86 H86        27.9736   24.7655    5.5837 H         1 UNK         0.0940 
     87 H87        26.2827   24.5319    5.2594 H         1 UNK         0.0940 
     88 H88        28.1179   25.4328    3.0031 H         1 UNK         0.0703 
     89 H89        25.3026   25.1616    3.2305 H         1 UNK         0.3081 
     90 H90        23.7990   26.1474    1.8934 H         1 UNK         0.0719 
     91 H91        24.7984   28.1285   -0.2329 H         1 UNK         0.0809 
     92 H92        23.1181   27.8207    0.1971 H         1 UNK         0.0809 
     93 H93        24.1942   28.5835    1.3556 H         1 UNK         0.0809 
     94 H94        25.4552   25.1863   -0.2969 H         1 UNK         0.2990 
     95 H95        23.7659   22.9092   -1.1650 H         1 UNK         0.0690 
     96 H96        22.5678   23.0939   -3.3634 H         1 UNK         0.0788 
     97 H97        22.1799   24.7762   -3.0047 H         1 UNK         0.0788 
     98 H98        21.5263   23.4863   -2.0074 H         1 UNK         0.0788 
     99 H99        25.5681   23.3967   -2.3223 H         1 UNK         0.2993 
    100 H100       26.9364   24.1711   -3.8266 H         1 UNK         0.0949 
    101 H101       26.3360   26.8806   -5.1280 H         1 UNK         0.0767 
    102 H102       27.5736   25.7266   -5.6256 H         1 UNK         0.0767 
    103 H103       25.8736   25.3180   -5.7875 H         1 UNK         0.0767 
    104 H104       28.0381   26.7124   -3.3384 H         1 UNK         0.3013 
    105 H105       29.5900   26.6800    3.9207 H         1 UNK         0.3121 
    106 H106       30.6468   28.3977    4.7306 H         1 UNK         0.0774 
    107 H107       28.1671   29.2955    6.2890 H         1 UNK         0.0815 
    108 H108       29.3145   28.0850    6.8625 H         1 UNK         0.0815 
    109 H109       29.8360   29.7395    6.5962 H         1 UNK         0.0815 
    110 H110       28.2370   28.7570    2.4940 H         1 UNK         0.2987 
    111 H111       27.9551   31.5674    2.2931 H         1 UNK         0.0949 
    112 H112       27.0966   31.0816    0.0118 H         1 UNK         0.0806 
    113 H113       27.7274   29.4446    0.0976 H         1 UNK         0.0806 
    114 H114       26.4314   29.9511    1.1788 H         1 UNK         0.0806 
    115 H115       30.5796   29.4955    1.2250 H         1 UNK         0.3010 
    116 H116       31.8700   31.5288   -0.4392 H         1 UNK         0.0829 
    117 H117       32.1298   29.0671   -0.8868 H         1 UNK         0.0813 
    118 H118       33.6739   29.8529   -0.6111 H         1 UNK         0.0813 
    119 H119       32.9557   28.8784    0.6599 H         1 UNK         0.0813 
    120 H120       31.5468   31.1650    2.9278 H         1 UNK         0.3038 
    121 H121       32.5466   31.8428    4.7574 H         1 UNK         0.0769 
    122 H122       33.6936   34.0199    4.7577 H         1 UNK         0.0811 
    123 H123       32.3321   34.0820    3.6521 H         1 UNK         0.0811 
    124 H124       33.9736   33.9284    3.0260 H         1 UNK         0.0811 
    125 H125       33.8299   29.6842    3.3156 H         1 UNK         0.3204 
    126 H126       36.7067   29.9306    3.6094 H         1 UNK         0.0748 
    127 H127       36.6799   27.6083    2.7179 H         1 UNK         0.0771 
    128 H128       34.9361   27.5216    2.9158 H         1 UNK         0.0771 
    129 H129       35.6436   28.6441    1.7529 H         1 UNK         0.0771 
    130 H130       34.2559   29.1772    5.8639 H         1 UNK         0.2980 
    131 H131       35.4032   27.0102    7.2495 H         1 UNK         0.0545 
    132 H132       37.4552   28.1952    9.8963 H         1 UNK         0.3459 
    133 H133       36.5403   26.8437    9.2824 H         1 UNK         0.3459 
    134 H134       33.4943   29.0506    8.4850 H         1 UNK         0.0616 
    135 H135       33.7139   27.3869    8.9638 H         1 UNK         0.0616 
    136 H136       33.6571   25.5663    6.7249 H         1 UNK         0.0634 
    137 H137       32.2490   25.3046    7.7297 H         1 UNK         0.0634 
@<TRIPOS>BOND
     1    1    2 1    
     2    1   72 1    
     3    1   73 1    
     4    1   74 1    
     5    2    3 2    
     6    2    4 am   BACKBONE|DICT|INTERRES
     7    4    5 1    
     8    4   75 1    
     9    5    6 1    
    10    5   35 1    
    11    5   76 1    
    12    6    7 1    
    13    6   77 1    
    14    6   78 1    
    15    7    8 1    
    16    8    9 1    
    17    8   79 1    
    18    8   80 1    
    19    9   10 ar   
    20    9   14 ar   
    21   10   11 ar   
    22   10   81 1    
    23   11   12 ar   
    24   11   71 1    
    25   12   13 ar   
    26   12   82 1    
    27   13   14 ar   
    28   13   15 1    
    29   14   83 1    
    30   15   16 1    
    31   15   84 1    
    32   15   85 1    
    33   16   17 1    
    34   17   18 1    
    35   17   86 1    
    36   17   87 1    
    37   18   19 1    
    38   18   37 1    
    39   18   88 1    
    40   19   20 am   BACKBONE|DICT|INTERRES
    41   19   89 1    
    42   20   21 2    
    43   20   22 1    
    44   22   23 1    
    45   22   24 1    
    46   22   90 1    
    47   23   91 1    
    48   23   92 1    
    49   23   93 1    
    50   24   25 am   BACKBONE|DICT|INTERRES
    51   24   94 1    
    52   25   26 2    
    53   25   27 1    
    54   27   28 1    
    55   27   29 1    
    56   27   95 1    
    57   28   96 1    
    58   28   97 1    
    59   28   98 1    
    60   29   30 am   BACKBONE|DICT|INTERRES
    61   29   99 1    
    62   30   31 2    
    63   30   32 1    
    64   32   33 1    
    65   32   34 1    
    66   32  100 1    
    67   33  101 1    
    68   33  102 1    
    69   33  103 1    
    70   34   35 am   BACKBONE|DICT|INTERRES
    71   34  104 1    
    72   35   36 2    
    73   37   38 2    
    74   37   39 am   BACKBONE|DICT|INTERRES
    75   39   40 1    
    76   39  105 1    
    77   40   41 1    
    78   40   42 1    
    79   40  106 1    
    80   41  107 1    
    81   41  108 1    
    82   41  109 1    
    83   42   43 2    
    84   42   44 am   BACKBONE|DICT|INTERRES
    85   44   45 1    
    86   44  110 1    
    87   45   46 1    
    88   45   47 1    
    89   45  111 1    
    90   46  112 1    
    91   46  113 1    
    92   46  114 1    
    93   47   48 2    
    94   47   49 am   BACKBONE|DICT|INTERRES
    95   49   50 1    
    96   49  115 1    
    97   50   51 1    
    98   50   52 1    
    99   50  116 1    
   100   51  117 1    
   101   51  118 1    
   102   51  119 1    
   103   52   53 2    
   104   52   54 am   BACKBONE|DICT|INTERRES
   105   54   55 1    
   106   54  120 1    
   107   55   56 1    
   108   55   57 1    
   109   55  121 1    
   110   56  122 1    
   111   56  123 1    
   112   56  124 1    
   113   57   58 2    
   114   57   59 am   BACKBONE|DICT|INTERRES
   115   59   60 1    
   116   59  125 1    
   117   60   61 1    
   118   60   62 1    
   119   60  126 1    
   120   61  127 1    
   121   61  128 1    
   122   61  129 1    
   123   62   63 2    
   124   62   64 am   BACKBONE|DICT|INTERRES
   125   64   65 1    
   126   64  130 1    
   127   65   66 1    
   128   65   69 1    
   129   65  131 1    
   130   66   67 am   BACKBONE|DICT|INTERRES
   131   66   68 2    
   132   67  132 1    
   133   67  133 1    
   134   69   70 1    
   135   69  134 1    
   136   69  135 1    
   137   70   71 1    
   138   71  136 1    
   139   71  137 1    
@<TRIPOS>SUBSTRUCTURE
     1 UNK         1 GROUP             0       ****    0 ROOT    
