@<TRIPOS>MOLECULE
3R136
137   139    1
SMALL
USER_CHARGES


@<TRIPOS>ATOM
      1 CA         28.5890   20.4229   -4.7255 C.3       0 UNK        -0.1979 
      2 C          28.6179   20.9624   -3.3030 C.2       0 UNK         0.4864 
      3 O          28.6754   20.1767   -2.3561 O.2       0 UNK        -0.5359 
      4 N          28.5823   22.2942   -3.1525 N.am      1 UNK        -0.4318 
      5 CA         28.5504   23.0272   -1.8829 C.3       1 UNK         0.0824 
      6 C6         29.8411   22.8268   -1.0341 C.3       12 UNK        -0.0944 
      7 S7         30.1197   24.1967    0.1366 S.3       12 UNK        -0.2672 
      8 C8         30.2357   23.3169    1.7235 C.3       12 UNK         0.0333 
      9 C9         30.3253   24.3042    2.8753 C.ar      12 UNK        -0.0807 
     10 C10        31.5667   24.7090    3.3755 C.ar      12 UNK        -0.0894 
     11 C11        31.6441   25.6275    4.4289 C.ar      12 UNK        -0.0804 
     12 C12        30.4631   26.1580    4.9605 C.ar      12 UNK        -0.0824 
     13 C13        29.2165   25.7775    4.4545 C.ar      12 UNK        -0.0762 
     14 C14        29.1564   24.8255    3.4335 C.ar      12 UNK        -0.0782 
     15 C15        27.9424   26.4029    5.0148 C.3       12 UNK         0.0230 
     16 S16        26.7914   27.0022    3.7273 S.3       12 UNK        -0.2608 
     17 C17        27.8547   28.0849    2.7109 C.3       12 UNK        -0.0989 
     18 CA         28.1064   27.4928    1.2995 C.3       5 UNK         0.0716 
     19 N          26.8593   27.3490    0.5418 N.am      5 UNK        -0.4135 
     20 C          26.7248   26.8150   -0.6792 C.2       4 UNK         0.5031 
     21 O          27.6581   26.3845   -1.3566 O.2       4 UNK        -0.5229 
     22 CA         25.2868   26.6896   -1.2017 C.3       4 UNK         0.0329 
     23 CB         25.2263   26.4505   -2.7222 C.3       4 UNK        -0.2001 
     24 N          24.6356   25.5752   -0.5167 N.am      4 UNK        -0.4303 
     25 C          23.9291   25.6869    0.6167 C.2       3 UNK         0.5044 
     26 O          23.7024   26.7636    1.1704 O.2       3 UNK        -0.5152 
     27 CA         23.3830   24.3920    1.2480 C.3       3 UNK         0.0319 
     28 CB         21.9202   24.1676    0.8323 C.3       3 UNK        -0.2001 
     29 N          24.1662   23.1999    0.9129 N.am      3 UNK        -0.4354 
     30 C          25.4043   22.9525    1.3616 C.2       2 UNK         0.4964 
     31 O          26.0025   23.6819    2.1507 O.2       2 UNK        -0.5047 
     32 CA         26.1134   21.6902    0.8374 C.3       2 UNK         0.0288 
     33 CB         25.1800   20.6816    0.1274 C.3       2 UNK        -0.2113 
     34 N          27.2486   22.0412   -0.0230 N.am      2 UNK        -0.4145 
     35 C          27.2133   22.7659   -1.1521 C.2       1 UNK         0.5006 
     36 O          26.1733   23.2156   -1.6413 O.2       1 UNK        -0.5103 
     37 C          29.1599   28.3149    0.5308 C.2       5 UNK         0.5055 
     38 O          29.0696   29.5444    0.4935 O.2       5 UNK        -0.5220 
     39 N          30.1295   27.6206   -0.0767 N.am      6 UNK        -0.4450 
     40 CA         31.2609   28.2147   -0.7822 C.3       6 UNK         0.0367 
     41 CB         31.9366   27.1422   -1.6521 C.3       6 UNK        -0.1929 
     42 C          32.2513   28.8097    0.2278 C.2       6 UNK         0.5070 
     43 O          32.6650   28.1035    1.1478 O.2       6 UNK        -0.5237 
     44 N          32.6038   30.0885    0.0326 N.am      7 UNK        -0.4739 
     45 CA         33.4747   30.9000    0.8950 C.3       7 UNK         0.0276 
     46 CB         34.9277   30.3780    0.8631 C.3       7 UNK        -0.1927 
     47 C          32.9277   31.0526    2.3291 C.2       7 UNK         0.5013 
     48 O          33.6989   31.0101    3.2890 O.2       7 UNK        -0.5193 
     49 N          31.6064   31.2611    2.4501 N.am      8 UNK        -0.4253 
     50 CA         30.8640   31.3828    3.7135 C.3       8 UNK         0.0242 
     51 CB         29.3933   31.7112    3.4137 C.3       8 UNK        -0.2000 
     52 C          31.4384   32.4054    4.7125 C.2       8 UNK         0.4948 
     53 O          31.3853   32.1652    5.9185 O.2       8 UNK        -0.5275 
     54 N          32.0124   33.5011    4.1953 N.am      9 UNK        -0.4246 
     55 CA         32.7072   34.5300    4.9732 C.3       9 UNK         0.0261 
     56 CB         32.9954   35.7387    4.0680 C.3       9 UNK        -0.1959 
     57 C          34.0058   34.0381    5.6425 C.2       9 UNK         0.5033 
     58 O          34.3854   34.5914    6.6757 O.2       9 UNK        -0.5390 
     59 N          34.6612   33.0239    5.0590 N.am      10 UNK        -0.4215 
     60 CA         35.8327   32.3605    5.6328 C.3       10 UNK         0.0240 
     61 CB         36.7488   31.8483    4.5084 C.3       10 UNK        -0.1982 
     62 C          35.4132   31.2115    6.5618 C.2       10 UNK         0.4970 
     63 O          36.0451   31.0262    7.6028 O.2       10 UNK        -0.4916 
     64 N          34.3615   30.4716    6.1806 N.am      11 UNK        -0.4279 
     65 CA         33.7595   29.3993    6.9893 C.3       11 UNK         0.1003 
     66 C          33.1480   29.9017    8.3269 C.2       11 UNK         0.5709 
     67 N          32.4372   31.0226    8.3341 N.am      11 UNK        -0.7358 
     68 O          33.3234   29.2685    9.3652 O.2       11 UNK        -0.4999 
     69 C69        32.7095   28.5835    6.1937 C.3       12 UNK        -0.0954 
     70 S70        33.4081   27.7748    4.7137 S.3       12 UNK        -0.2268 
     71 C71        33.0027   26.0211    5.0014 C.3       12 UNK         0.0203 
     72 H72        29.4818   19.8290   -4.9194 H         1 UNK         0.0888 
     73 H73        27.7174   19.7844   -4.8664 H         1 UNK         0.0888 
     74 H74        28.5467   21.2223   -5.4652 H         1 UNK         0.0888 
     75 H75        28.5061   22.8742   -3.9766 H         1 UNK         0.3017 
     76 H76        28.5208   24.0763   -2.1790 H         1 UNK         0.0873 
     77 H77        29.8600   21.8618   -0.5259 H         1 UNK         0.0745 
     78 H78        30.7081   22.8152   -1.6965 H         1 UNK         0.0745 
     79 H79        29.3635   22.6761    1.8575 H         1 UNK         0.0705 
     80 H80        31.1078   22.6612    1.7134 H         1 UNK         0.0705 
     81 H81        32.4727   24.3043    2.9453 H         1 UNK         0.1334 
     82 H82        30.5120   26.8752    5.7661 H         1 UNK         0.1417 
     83 H83        28.1954   24.5209    3.0439 H         1 UNK         0.1562 
     84 H84        28.1816   27.2382    5.6749 H         1 UNK         0.0748 
     85 H85        27.4277   25.6625    5.6283 H         1 UNK         0.0748 
     86 H86        28.7985   28.2577    3.2324 H         1 UNK         0.0940 
     87 H87        27.3718   29.0608    2.6353 H         1 UNK         0.0940 
     88 H88        28.5070   26.4869    1.4231 H         1 UNK         0.0703 
     89 H89        26.0190   27.6248    1.0316 H         1 UNK         0.3081 
     90 H90        24.7639   27.6255   -0.9926 H         1 UNK         0.0719 
     91 H91        25.7167   27.2610   -3.2628 H         1 UNK         0.0809 
     92 H92        25.7206   25.5217   -3.0096 H         1 UNK         0.0809 
     93 H93        24.1958   26.4020   -3.0738 H         1 UNK         0.0809 
     94 H94        24.8572   24.6495   -0.8692 H         1 UNK         0.2990 
     95 H95        23.4131   24.5214    2.3321 H         1 UNK         0.0690 
     96 H96        21.4928   23.2998    1.3351 H         1 UNK         0.0788 
     97 H97        21.8245   24.0153   -0.2436 H         1 UNK         0.0788 
     98 H98        21.3037   25.0284    1.0956 H         1 UNK         0.0788 
     99 H99        23.7587   22.5534    0.2527 H         1 UNK         0.2993 
    100 H100       26.5290   21.1920    1.7148 H         1 UNK         0.0949 
    101 H101       24.7489   21.0830   -0.7903 H         1 UNK         0.0767 
    102 H102       25.7235   19.7752   -0.1403 H         1 UNK         0.0767 
    103 H103       24.3585   20.3787    0.7782 H         1 UNK         0.0767 
    104 H104       28.1496   21.7089    0.2868 H         1 UNK         0.3013 
    105 H105       30.1240   26.6110   -0.0037 H         1 UNK         0.3121 
    106 H106       30.8848   29.0037   -1.4372 H         1 UNK         0.0774 
    107 H107       32.3301   26.3225   -1.0489 H         1 UNK         0.0815 
    108 H108       31.2380   26.7196   -2.3746 H         1 UNK         0.0815 
    109 H109       32.7711   27.5646   -2.2132 H         1 UNK         0.0815 
    110 H110       32.2014   30.5748   -0.7577 H         1 UNK         0.2987 
    111 H111       33.4809   31.9045    0.4689 H         1 UNK         0.0949 
    112 H112       35.2931   30.2780   -0.1587 H         1 UNK         0.0806 
    113 H113       35.5997   31.0633    1.3810 H         1 UNK         0.0806 
    114 H114       35.0196   29.4067    1.3506 H         1 UNK         0.0806 
    115 H115       31.0512   31.2562    1.6056 H         1 UNK         0.3010 
    116 H116       30.8996   30.4032    4.1913 H         1 UNK         0.0829 
    117 H117       29.2887   32.6701    2.9046 H         1 UNK         0.0813 
    118 H118       28.8090   31.7639    4.3336 H         1 UNK         0.0813 
    119 H119       28.9347   30.9489    2.7859 H         1 UNK         0.0813 
    120 H120       32.0032   33.6151    3.1922 H         1 UNK         0.3038 
    121 H121       32.0342   34.8533    5.7704 H         1 UNK         0.0769 
    122 H122       32.0762   36.1552    3.6557 H         1 UNK         0.0811 
    123 H123       33.6494   35.4744    3.2360 H         1 UNK         0.0811 
    124 H124       33.4869   36.5361    4.6275 H         1 UNK         0.0811 
    125 H125       34.2499   32.5709    4.2475 H         1 UNK         0.3204 
    126 H126       36.4030   33.0804    6.2239 H         1 UNK         0.0748 
    127 H127       36.2662   31.0790    3.9050 H         1 UNK         0.0771 
    128 H128       37.0497   32.6572    3.8424 H         1 UNK         0.0771 
    129 H129       37.6593   31.4114    4.9203 H         1 UNK         0.0771 
    130 H130       33.9394   30.6446    5.2752 H         1 UNK         0.2980 
    131 H131       34.5682   28.7156    7.2548 H         1 UNK         0.0545 
    132 H132       32.2142   31.5004    7.4643 H         1 UNK         0.3459 
    133 H133       32.0444   31.3519    9.2008 H         1 UNK         0.3459 
    134 H134       31.8848   29.2235    5.8810 H         1 UNK         0.0616 
    135 H135       32.2720   27.8236    6.8423 H         1 UNK         0.0616 
    136 H136       33.0367   25.7919    6.0672 H         1 UNK         0.0634 
    137 H137       33.7898   25.4202    4.5436 H         1 UNK         0.0634 
@<TRIPOS>BOND
     1    1    2 1    
     2    1   72 1    
     3    1   73 1    
     4    1   74 1    
     5    2    3 2    
     6    2    4 am   BACKBONE|DICT|INTERRES
     7    4    5 1    
     8    4   75 1    
     9    5    6 1    
    10    5   35 1    
    11    5   76 1    
    12    6    7 1    
    13    6   77 1    
    14    6   78 1    
    15    7    8 1    
    16    8    9 1    
    17    8   79 1    
    18    8   80 1    
    19    9   10 ar   
    20    9   14 ar   
    21   10   11 ar   
    22   10   81 1    
    23   11   12 ar   
    24   11   71 1    
    25   12   13 ar   
    26   12   82 1    
    27   13   14 ar   
    28   13   15 1    
    29   14   83 1    
    30   15   16 1    
    31   15   84 1    
    32   15   85 1    
    33   16   17 1    
    34   17   18 1    
    35   17   86 1    
    36   17   87 1    
    37   18   19 1    
    38   18   37 1    
    39   18   88 1    
    40   19   20 am   BACKBONE|DICT|INTERRES
    41   19   89 1    
    42   20   21 2    
    43   20   22 1    
    44   22   23 1    
    45   22   24 1    
    46   22   90 1    
    47   23   91 1    
    48   23   92 1    
    49   23   93 1    
    50   24   25 am   BACKBONE|DICT|INTERRES
    51   24   94 1    
    52   25   26 2    
    53   25   27 1    
    54   27   28 1    
    55   27   29 1    
    56   27   95 1    
    57   28   96 1    
    58   28   97 1    
    59   28   98 1    
    60   29   30 am   BACKBONE|DICT|INTERRES
    61   29   99 1    
    62   30   31 2    
    63   30   32 1    
    64   32   33 1    
    65   32   34 1    
    66   32  100 1    
    67   33  101 1    
    68   33  102 1    
    69   33  103 1    
    70   34   35 am   BACKBONE|DICT|INTERRES
    71   34  104 1    
    72   35   36 2    
    73   37   38 2    
    74   37   39 am   BACKBONE|DICT|INTERRES
    75   39   40 1    
    76   39  105 1    
    77   40   41 1    
    78   40   42 1    
    79   40  106 1    
    80   41  107 1    
    81   41  108 1    
    82   41  109 1    
    83   42   43 2    
    84   42   44 am   BACKBONE|DICT|INTERRES
    85   44   45 1    
    86   44  110 1    
    87   45   46 1    
    88   45   47 1    
    89   45  111 1    
    90   46  112 1    
    91   46  113 1    
    92   46  114 1    
    93   47   48 2    
    94   47   49 am   BACKBONE|DICT|INTERRES
    95   49   50 1    
    96   49  115 1    
    97   50   51 1    
    98   50   52 1    
    99   50  116 1    
   100   51  117 1    
   101   51  118 1    
   102   51  119 1    
   103   52   53 2    
   104   52   54 am   BACKBONE|DICT|INTERRES
   105   54   55 1    
   106   54  120 1    
   107   55   56 1    
   108   55   57 1    
   109   55  121 1    
   110   56  122 1    
   111   56  123 1    
   112   56  124 1    
   113   57   58 2    
   114   57   59 am   BACKBONE|DICT|INTERRES
   115   59   60 1    
   116   59  125 1    
   117   60   61 1    
   118   60   62 1    
   119   60  126 1    
   120   61  127 1    
   121   61  128 1    
   122   61  129 1    
   123   62   63 2    
   124   62   64 am   BACKBONE|DICT|INTERRES
   125   64   65 1    
   126   64  130 1    
   127   65   66 1    
   128   65   69 1    
   129   65  131 1    
   130   66   67 am   BACKBONE|DICT|INTERRES
   131   66   68 2    
   132   67  132 1    
   133   67  133 1    
   134   69   70 1    
   135   69  134 1    
   136   69  135 1    
   137   70   71 1    
   138   71  136 1    
   139   71  137 1    
@<TRIPOS>SUBSTRUCTURE
     1 UNK         1 GROUP             0       ****    0 ROOT    
