@<TRIPOS>MOLECULE
3R136
137   139    1
SMALL
USER_CHARGES


@<TRIPOS>ATOM
      1 CA         27.7052   21.2446    3.0072 C.3       0 UNK        -0.1979 
      2 C          28.0827   21.7041    1.6070 C.2       0 UNK         0.4864 
      3 O          27.2540   21.6345    0.6985 O.2       0 UNK        -0.5359 
      4 N          29.3251   22.1683    1.4253 N.am      1 UNK        -0.4318 
      5 CA         29.8385   22.7072    0.1627 C.3       1 UNK         0.0824 
      6 C6         31.3810   22.8127    0.1737 C.3       12 UNK        -0.0944 
      7 S7         32.2528   21.2049    0.2752 S.3       12 UNK        -0.2672 
      8 C8         32.4064   20.7998    2.0575 C.3       12 UNK         0.0333 
      9 C9         32.5149   22.0065    2.9820 C.ar      12 UNK        -0.0807 
     10 C10        33.4687   23.0024    2.7526 C.ar      12 UNK        -0.0894 
     11 C11        33.4708   24.1714    3.5183 C.ar      12 UNK        -0.0804 
     12 C12        32.5657   24.3050    4.5772 C.ar      12 UNK        -0.0824 
     13 C13        31.6551   23.2830    4.8603 C.ar      12 UNK        -0.0762 
     14 C14        31.6335   22.1391    4.0582 C.ar      12 UNK        -0.0782 
     15 C15        30.6939   23.3953    6.0330 C.3       12 UNK         0.0230 
     16 S16        28.9858   23.6890    5.4756 S.3       12 UNK        -0.2608 
     17 C17        28.8450   25.5089    5.5326 C.3       12 UNK        -0.0989 
     18 CA         28.7492   26.1855    4.1353 C.3       5 UNK         0.0716 
     19 N          27.7412   25.5989    3.2421 N.am      5 UNK        -0.4135 
     20 C          26.4213   25.5195    3.4624 C.2       4 UNK         0.5031 
     21 O          25.8606   25.9188    4.4852 O.2       4 UNK        -0.5229 
     22 CA         25.5963   24.8893    2.3246 C.3       4 UNK         0.0329 
     23 CB         24.1236   24.6323    2.7091 C.3       4 UNK        -0.2001 
     24 N          25.6890   25.6664    1.0841 N.am      4 UNK        -0.4303 
     25 C          25.3176   26.9388    0.8749 C.2       3 UNK         0.5044 
     26 O          24.7627   27.6393    1.7213 O.2       3 UNK        -0.5152 
     27 CA         25.6207   27.5239   -0.5221 C.3       3 UNK         0.0319 
     28 CB         25.4519   29.0537   -0.5881 C.3       3 UNK        -0.2001 
     29 N          26.9666   27.1730   -0.9870 N.am      3 UNK        -0.4354 
     30 C          27.2880   26.0198   -1.5892 C.2       2 UNK         0.4964 
     31 O          26.4634   25.1389   -1.8393 O.2       2 UNK        -0.5047 
     32 CA         28.7664   25.7684   -1.9404 C.3       2 UNK         0.0288 
     33 CB         29.7263   26.8990   -1.5125 C.3       2 UNK        -0.2113 
     34 N          29.2306   24.4806   -1.4105 N.am      2 UNK        -0.4145 
     35 C          29.2363   24.0979   -0.1240 C.2       1 UNK         0.5006 
     36 O          28.8454   24.8054    0.8110 O.2       1 UNK        -0.5103 
     37 C          28.5604   27.7163    4.2358 C.2       5 UNK         0.5055 
     38 O          28.5111   28.2705    5.3369 O.2       5 UNK        -0.5220 
     39 N          28.4294   28.3709    3.0769 N.am      6 UNK        -0.4450 
     40 CA         28.2459   29.8107    2.9189 C.3       6 UNK         0.0367 
     41 CB         26.7677   30.1662    3.1821 C.3       6 UNK        -0.1929 
     42 C          28.6947   30.1857    1.4938 C.2       6 UNK         0.5070 
     43 O          28.8810   29.2796    0.6757 O.2       6 UNK        -0.5237 
     44 N          28.8820   31.4672    1.1541 N.am      7 UNK        -0.4739 
     45 CA         28.7076   32.6745    1.9663 C.3       7 UNK         0.0276 
     46 CB         27.4923   33.4525    1.4293 C.3       7 UNK        -0.1927 
     47 C          29.9716   33.5426    1.8916 C.2       7 UNK         0.5013 
     48 O          30.8189   33.3221    1.0212 O.2       7 UNK        -0.5193 
     49 N          30.0696   34.5139    2.8129 N.am      8 UNK        -0.4253 
     50 CA         31.1839   35.4453    3.0606 C.3       8 UNK         0.0242 
     51 CB         31.5013   36.3168    1.8285 C.3       8 UNK        -0.2000 
     52 C          32.4418   34.7481    3.6088 C.2       8 UNK         0.4948 
     53 O          32.9241   35.1180    4.6803 O.2       8 UNK        -0.5275 
     54 N          32.9173   33.7305    2.8864 N.am      9 UNK        -0.4246 
     55 CA         33.8840   32.7388    3.3489 C.3       9 UNK         0.0261 
     56 CB         34.6738   32.2352    2.1269 C.3       9 UNK        -0.1959 
     57 C          33.1479   31.5799    4.0475 C.2       9 UNK         0.5033 
     58 O          31.9138   31.5476    4.0670 O.2       9 UNK        -0.5390 
     59 N          33.9185   30.6148    4.5706 N.am      10 UNK        -0.4215 
     60 CA         33.4092   29.3638    5.1526 C.3       10 UNK         0.0240 
     61 CB         34.5773   28.5701    5.7607 C.3       10 UNK        -0.1982 
     62 C          32.6267   28.4874    4.1539 C.2       10 UNK         0.4970 
     63 O          31.7673   27.7162    4.5758 O.2       10 UNK        -0.4916 
     64 N          32.9327   28.6347    2.8622 N.am      11 UNK        -0.4279 
     65 CA         32.2076   28.0697    1.7267 C.3       11 UNK         0.1003 
     66 C          32.5725   28.8754    0.4547 C.2       11 UNK         0.5709 
     67 N          31.5893   29.3112   -0.3186 N.am      11 UNK        -0.7358 
     68 O          33.7432   29.1194    0.1692 O.2       11 UNK        -0.4999 
     69 C69        32.3964   26.5354    1.5682 C.3       12 UNK        -0.0954 
     70 S70        34.1352   25.9669    1.4925 S.3       12 UNK        -0.2268 
     71 C71        34.4240   25.3057    3.1705 C.3       12 UNK         0.0203 
     72 H72        28.5733   21.1759    3.6612 H         1 UNK         0.0888 
     73 H73        26.9980   21.9422    3.4548 H         1 UNK         0.0888 
     74 H74        27.2368   20.2616    2.9676 H         1 UNK         0.0888 
     75 H75        29.9528   22.2479    2.2115 H         1 UNK         0.3017 
     76 H76        29.5377   22.0325   -0.6419 H         1 UNK         0.0873 
     77 H77        31.7270   23.2695   -0.7557 H         1 UNK         0.0745 
     78 H78        31.7072   23.4988    0.9529 H         1 UNK         0.0745 
     79 H79        31.5480   20.1853    2.3333 H         1 UNK         0.0705 
     80 H80        33.2853   20.1691    2.1972 H         1 UNK         0.0705 
     81 H81        34.1570   22.9040    1.9240 H         1 UNK         0.1334 
     82 H82        32.5644   25.2059    5.1757 H         1 UNK         0.1417 
     83 H83        30.9177   21.3571    4.2720 H         1 UNK         0.1562 
     84 H84        31.0111   24.1703    6.7321 H         1 UNK         0.0748 
     85 H85        30.7160   22.4612    6.5962 H         1 UNK         0.0748 
     86 H86        29.6917   25.9237    6.0821 H         1 UNK         0.0940 
     87 H87        27.9634   25.7459    6.1308 H         1 UNK         0.0940 
     88 H88        29.7083   26.0309    3.6384 H         1 UNK         0.0703 
     89 H89        28.1027   25.2604    2.3496 H         1 UNK         0.3081 
     90 H90        26.0490   23.9206    2.1112 H         1 UNK         0.0719 
     91 H91        23.5976   25.5558    2.9535 H         1 UNK         0.0809 
     92 H92        23.5826   24.1422    1.8998 H         1 UNK         0.0809 
     93 H93        24.0592   23.9828    3.5828 H         1 UNK         0.0809 
     94 H94        26.1319   25.1917    0.3059 H         1 UNK         0.2990 
     95 H95        24.8849   27.0915   -1.2035 H         1 UNK         0.0690 
     96 H96        25.6013   29.4232   -1.6026 H         1 UNK         0.0788 
     97 H97        26.1603   29.5679    0.0594 H         1 UNK         0.0788 
     98 H98        24.4490   29.3542   -0.2819 H         1 UNK         0.0788 
     99 H99        27.7069   27.8232   -0.7517 H         1 UNK         0.2993 
    100 H100       28.8069   25.6933   -3.0282 H         1 UNK         0.0949 
    101 H101       29.7450   27.0278   -0.4305 H         1 UNK         0.0767 
    102 H102       30.7467   26.6872   -1.8324 H         1 UNK         0.0767 
    103 H103       29.4465   27.8532   -1.9609 H         1 UNK         0.0767 
    104 H104       29.5460   23.8192   -2.1064 H         1 UNK         0.3013 
    105 H105       28.5115   27.8734    2.1988 H         1 UNK         0.3121 
    106 H106       28.8955   30.3146    3.6373 H         1 UNK         0.0774 
    107 H107       26.6008   31.2411    3.1992 H         1 UNK         0.0815 
    108 H108       26.1134   29.7513    2.4175 H         1 UNK         0.0815 
    109 H109       26.4293   29.7832    4.1448 H         1 UNK         0.0815 
    110 H110       29.2747   31.6543    0.2418 H         1 UNK         0.2987 
    111 H111       28.5501   32.4334    3.0171 H         1 UNK         0.0949 
    112 H112       27.6553   33.7948    0.4064 H         1 UNK         0.0806 
    113 H113       26.5902   32.8410    1.4301 H         1 UNK         0.0806 
    114 H114       27.2842   34.3336    2.0376 H         1 UNK         0.0806 
    115 H115       29.3159   34.5883    3.4826 H         1 UNK         0.3010 
    116 H116       30.8341   36.1172    3.8464 H         1 UNK         0.0829 
    117 H117       30.6158   36.8501    1.4829 H         1 UNK         0.0813 
    118 H118       32.2569   37.0655    2.0695 H         1 UNK         0.0813 
    119 H119       31.8855   35.7307    0.9934 H         1 UNK         0.0813 
    120 H120       32.3745   33.4765    2.0641 H         1 UNK         0.3038 
    121 H121       34.5744   33.1950    4.0615 H         1 UNK         0.0769 
    122 H122       35.4543   31.5297    2.4133 H         1 UNK         0.0811 
    123 H123       35.1658   33.0595    1.6101 H         1 UNK         0.0811 
    124 H124       34.0258   31.7335    1.4065 H         1 UNK         0.0811 
    125 H125       34.9226   30.7201    4.5334 H         1 UNK         0.3204 
    126 H126       32.7190   29.6298    5.9561 H         1 UNK         0.0748 
    127 H127       35.3190   28.3005    5.0077 H         1 UNK         0.0771 
    128 H128       35.0812   29.1399    6.5416 H         1 UNK         0.0771 
    129 H129       34.2239   27.6437    6.2161 H         1 UNK         0.0771 
    130 H130       33.6744   29.2688    2.6024 H         1 UNK         0.2980 
    131 H131       31.1477   28.2420    1.9206 H         1 UNK         0.0545 
    132 H132       31.8189   29.8368   -1.1462 H         1 UNK         0.3459 
    133 H133       30.6167   29.1721   -0.0620 H         1 UNK         0.3459 
    134 H134       31.8935   26.1902    0.6636 H         1 UNK         0.0616 
    135 H135       31.8834   26.0258    2.3828 H         1 UNK         0.0616 
    136 H136       35.4496   24.9396    3.2319 H         1 UNK         0.0634 
    137 H137       34.3446   26.1173    3.8932 H         1 UNK         0.0634 
@<TRIPOS>BOND
     1    1    2 1    
     2    1   72 1    
     3    1   73 1    
     4    1   74 1    
     5    2    3 2    
     6    2    4 am   BACKBONE|DICT|INTERRES
     7    4    5 1    
     8    4   75 1    
     9    5    6 1    
    10    5   35 1    
    11    5   76 1    
    12    6    7 1    
    13    6   77 1    
    14    6   78 1    
    15    7    8 1    
    16    8    9 1    
    17    8   79 1    
    18    8   80 1    
    19    9   10 ar   
    20    9   14 ar   
    21   10   11 ar   
    22   10   81 1    
    23   11   12 ar   
    24   11   71 1    
    25   12   13 ar   
    26   12   82 1    
    27   13   14 ar   
    28   13   15 1    
    29   14   83 1    
    30   15   16 1    
    31   15   84 1    
    32   15   85 1    
    33   16   17 1    
    34   17   18 1    
    35   17   86 1    
    36   17   87 1    
    37   18   19 1    
    38   18   37 1    
    39   18   88 1    
    40   19   20 am   BACKBONE|DICT|INTERRES
    41   19   89 1    
    42   20   21 2    
    43   20   22 1    
    44   22   23 1    
    45   22   24 1    
    46   22   90 1    
    47   23   91 1    
    48   23   92 1    
    49   23   93 1    
    50   24   25 am   BACKBONE|DICT|INTERRES
    51   24   94 1    
    52   25   26 2    
    53   25   27 1    
    54   27   28 1    
    55   27   29 1    
    56   27   95 1    
    57   28   96 1    
    58   28   97 1    
    59   28   98 1    
    60   29   30 am   BACKBONE|DICT|INTERRES
    61   29   99 1    
    62   30   31 2    
    63   30   32 1    
    64   32   33 1    
    65   32   34 1    
    66   32  100 1    
    67   33  101 1    
    68   33  102 1    
    69   33  103 1    
    70   34   35 am   BACKBONE|DICT|INTERRES
    71   34  104 1    
    72   35   36 2    
    73   37   38 2    
    74   37   39 am   BACKBONE|DICT|INTERRES
    75   39   40 1    
    76   39  105 1    
    77   40   41 1    
    78   40   42 1    
    79   40  106 1    
    80   41  107 1    
    81   41  108 1    
    82   41  109 1    
    83   42   43 2    
    84   42   44 am   BACKBONE|DICT|INTERRES
    85   44   45 1    
    86   44  110 1    
    87   45   46 1    
    88   45   47 1    
    89   45  111 1    
    90   46  112 1    
    91   46  113 1    
    92   46  114 1    
    93   47   48 2    
    94   47   49 am   BACKBONE|DICT|INTERRES
    95   49   50 1    
    96   49  115 1    
    97   50   51 1    
    98   50   52 1    
    99   50  116 1    
   100   51  117 1    
   101   51  118 1    
   102   51  119 1    
   103   52   53 2    
   104   52   54 am   BACKBONE|DICT|INTERRES
   105   54   55 1    
   106   54  120 1    
   107   55   56 1    
   108   55   57 1    
   109   55  121 1    
   110   56  122 1    
   111   56  123 1    
   112   56  124 1    
   113   57   58 2    
   114   57   59 am   BACKBONE|DICT|INTERRES
   115   59   60 1    
   116   59  125 1    
   117   60   61 1    
   118   60   62 1    
   119   60  126 1    
   120   61  127 1    
   121   61  128 1    
   122   61  129 1    
   123   62   63 2    
   124   62   64 am   BACKBONE|DICT|INTERRES
   125   64   65 1    
   126   64  130 1    
   127   65   66 1    
   128   65   69 1    
   129   65  131 1    
   130   66   67 am   BACKBONE|DICT|INTERRES
   131   66   68 2    
   132   67  132 1    
   133   67  133 1    
   134   69   70 1    
   135   69  134 1    
   136   69  135 1    
   137   70   71 1    
   138   71  136 1    
   139   71  137 1    
@<TRIPOS>SUBSTRUCTURE
     1 UNK         1 GROUP             0       ****    0 ROOT    
