@<TRIPOS>MOLECULE
3R136
137   139    1
SMALL
USER_CHARGES


@<TRIPOS>ATOM
      1 CA         33.9654   23.1079    1.3332 C.3       0 UNK        -0.1979 
      2 C          32.6132   22.4648    1.0661 C.2       0 UNK         0.4864 
      3 O          32.5485   21.4500    0.3710 O.2       0 UNK        -0.5359 
      4 N          31.5307   23.0561    1.5926 N.am      1 UNK        -0.4318 
      5 CA         30.1301   22.6101    1.5176 C.3       1 UNK         0.0824 
      6 C6         29.9287   21.1638    2.0441 C.3       12 UNK        -0.0944 
      7 S7         28.2249   20.8110    2.5894 S.3       12 UNK        -0.2672 
      8 C8         28.3453   21.0652    4.3884 C.3       12 UNK         0.0333 
      9 C9         28.1854   22.5323    4.7573 C.ar      12 UNK        -0.0807 
     10 C10        29.3031   23.3443    4.9747 C.ar      12 UNK        -0.0894 
     11 C11        29.1486   24.6918    5.3214 C.ar      12 UNK        -0.0804 
     12 C12        27.8582   25.2117    5.4826 C.ar      12 UNK        -0.0824 
     13 C13        26.7356   24.4182    5.2344 C.ar      12 UNK        -0.0762 
     14 C14        26.9055   23.0777    4.8809 C.ar      12 UNK        -0.0782 
     15 C15        25.3359   25.0041    5.3231 C.3       12 UNK         0.0230 
     16 S16        24.7394   25.5130    3.6784 S.3       12 UNK        -0.2608 
     17 C17        25.3766   27.2191    3.5379 C.3       12 UNK        -0.0989 
     18 CA         26.7303   27.3451    2.7794 C.3       5 UNK         0.0716 
     19 N          26.7457   26.6839    1.4688 N.am      5 UNK        -0.4135 
     20 C          26.0113   27.0104    0.3969 C.2       4 UNK         0.5031 
     21 O          25.2472   27.9762    0.3431 O.2       4 UNK        -0.5229 
     22 CA         26.1696   26.0721   -0.8118 C.3       4 UNK         0.0329 
     23 CB         25.2580   26.4417   -2.0026 C.3       4 UNK        -0.2001 
     24 N          27.5708   25.9369   -1.2273 N.am      4 UNK        -0.4303 
     25 C          28.3627   26.8789   -1.7676 C.2       3 UNK         0.5044 
     26 O          28.0066   28.0402   -1.9665 O.2       3 UNK        -0.5152 
     27 CA         29.8053   26.4784   -2.1518 C.3       3 UNK         0.0319 
     28 CB         30.8275   27.2617   -1.3122 C.3       3 UNK        -0.2001 
     29 N          30.0876   25.0481   -2.0118 N.am      3 UNK        -0.4354 
     30 C          29.6072   24.0741   -2.7982 C.2       2 UNK         0.4964 
     31 O          28.9537   24.2830   -3.8204 O.2       2 UNK        -0.5047 
     32 CA         29.8643   22.6201   -2.3530 C.3       2 UNK         0.0288 
     33 CB         30.9596   21.9790   -3.2206 C.3       2 UNK        -0.2113 
     34 N          30.2287   22.4626   -0.9385 N.am      2 UNK        -0.4145 
     35 C          29.5005   22.8323    0.1254 C.2       1 UNK         0.5006 
     36 O          28.4050   23.3910    0.0351 O.2       1 UNK        -0.5103 
     37 C          27.2218   28.8088    2.7116 C.2       5 UNK         0.5055 
     38 O          26.6382   29.6861    3.3534 O.2       5 UNK        -0.5220 
     39 N          28.2997   29.0580    1.9532 N.am      6 UNK        -0.4450 
     40 CA         28.9339   30.3718    1.7825 C.3       6 UNK         0.0367 
     41 CB         29.7807   30.3575    0.4969 C.3       6 UNK        -0.1929 
     42 C          29.7554   30.8020    3.0167 C.2       6 UNK         0.5070 
     43 O          30.9414   31.1115    2.8929 O.2       6 UNK        -0.5237 
     44 N          29.1145   30.8086    4.1916 N.am      7 UNK        -0.4739 
     45 CA         29.7126   31.0704    5.5063 C.3       7 UNK         0.0276 
     46 CB         28.6855   30.7244    6.5959 C.3       7 UNK        -0.1927 
     47 C          30.2540   32.4994    5.6955 C.2       7 UNK         0.5013 
     48 O          31.0507   32.7252    6.6065 O.2       7 UNK        -0.5193 
     49 N          29.8332   33.4304    4.8285 N.am      8 UNK        -0.4253 
     50 CA         30.3917   34.7796    4.7116 C.3       8 UNK         0.0242 
     51 CB         29.4068   35.6599    3.9243 C.3       8 UNK        -0.2000 
     52 C          31.7848   34.8028    4.0486 C.2       8 UNK         0.4948 
     53 O          32.4810   35.8128    4.1647 O.2       8 UNK        -0.5275 
     54 N          32.1594   33.7143    3.3636 N.am      9 UNK        -0.4246 
     55 CA         33.4509   33.5040    2.7186 C.3       9 UNK         0.0261 
     56 CB         33.2278   33.3786    1.1962 C.3       9 UNK        -0.1959 
     57 C          34.1212   32.2736    3.3579 C.2       9 UNK         0.5033 
     58 O          34.0621   32.1141    4.5789 O.2       9 UNK        -0.5390 
     59 N          34.7620   31.4300    2.5387 N.am      10 UNK        -0.4215 
     60 CA         35.4757   30.2237    2.9698 C.3       10 UNK         0.0240 
     61 CB         36.4884   29.8345    1.8788 C.3       10 UNK        -0.1982 
     62 C          34.5609   29.0281    3.3015 C.2       10 UNK         0.4970 
     63 O          35.0506   28.0561    3.8776 O.2       10 UNK        -0.4916 
     64 N          33.2781   29.0943    2.9161 N.am      11 UNK        -0.4279 
     65 CA         32.2795   28.0212    3.0597 C.3       11 UNK         0.1003 
     66 C          32.5484   26.7532    2.1928 C.2       11 UNK         0.5709 
     67 N          33.3865   26.8265    1.1652 N.am      11 UNK        -0.7358 
     68 O          31.9624   25.6981    2.4189 O.2       11 UNK        -0.4999 
     69 C69        31.9486   27.7170    4.5500 C.3       12 UNK        -0.0954 
     70 S70        30.2067   27.2284    4.7819 S.3       12 UNK        -0.2268 
     71 C71        30.3839   25.5670    5.5172 C.3       12 UNK         0.0203 
     72 H72        33.9146   23.8438    2.1352 H         1 UNK         0.0888 
     73 H73        34.6898   22.3480    1.6250 H         1 UNK         0.0888 
     74 H74        34.3327   23.6006    0.4338 H         1 UNK         0.0888 
     75 H75        31.6616   23.9501    2.0671 H         1 UNK         0.3017 
     76 H76        29.5998   23.2847    2.1910 H         1 UNK         0.0873 
     77 H77        30.2037   20.4302    1.2840 H         1 UNK         0.0745 
     78 H78        30.6027   20.9764    2.8810 H         1 UNK         0.0745 
     79 H79        29.2872   20.6675    4.7690 H         1 UNK         0.0705 
     80 H80        27.5597   20.4836    4.8732 H         1 UNK         0.0705 
     81 H81        30.2947   22.9270    4.8628 H         1 UNK         0.1334 
     82 H82        27.7257   26.2469    5.7654 H         1 UNK         0.1417 
     83 H83        26.0385   22.4597    4.6891 H         1 UNK         0.1562 
     84 H84        25.3049   25.8424    6.0205 H         1 UNK         0.0748 
     85 H85        24.6529   24.2542    5.7251 H         1 UNK         0.0748 
     86 H86        25.4606   27.6455    4.5392 H         1 UNK         0.0940 
     87 H87        24.6106   27.8108    3.0330 H         1 UNK         0.0940 
     88 H88        27.4835   26.8232    3.3664 H         1 UNK         0.0703 
     89 H89        27.3277   25.8607    1.4047 H         1 UNK         0.3081 
     90 H90        25.8618   25.0826   -0.4692 H         1 UNK         0.0719 
     91 H91        25.3808   25.7406   -2.8281 H         1 UNK         0.0809 
     92 H92        25.4619   27.4441   -2.3800 H         1 UNK         0.0809 
     93 H93        24.2080   26.4163   -1.7087 H         1 UNK         0.0809 
     94 H94        27.9769   25.0228   -1.0512 H         1 UNK         0.2990 
     95 H95        29.9461   26.7484   -3.2004 H         1 UNK         0.0690 
     96 H96        31.8509   26.9907   -1.5725 H         1 UNK         0.0788 
     97 H97        30.6925   27.0853   -0.2448 H         1 UNK         0.0788 
     98 H98        30.7294   28.3336   -1.4858 H         1 UNK         0.0788 
     99 H99        30.6246   24.7737   -1.2028 H         1 UNK         0.2993 
    100 H100       28.9333   22.0718   -2.5106 H         1 UNK         0.0949 
    101 H101       31.9237   22.4692   -3.0783 H         1 UNK         0.0767 
    102 H102       31.0832   20.9215   -2.9861 H         1 UNK         0.0767 
    103 H103       30.7110   22.0470   -4.2808 H         1 UNK         0.0767 
    104 H104       31.1214   22.0162   -0.7395 H         1 UNK         0.3013 
    105 H105       28.7266   28.2850    1.4661 H         1 UNK         0.3121 
    106 H106       28.1472   31.1174    1.6489 H         1 UNK         0.0774 
    107 H107       30.2031   31.3433    0.2973 H         1 UNK         0.0815 
    108 H108       30.6130   29.6575    0.5683 H         1 UNK         0.0815 
    109 H109       29.1805   30.0845   -0.3713 H         1 UNK         0.0815 
    110 H110       28.1361   30.5310    4.1786 H         1 UNK         0.2987 
    111 H111       30.5655   30.3982    5.6159 H         1 UNK         0.0949 
    112 H112       28.3787   29.6800    6.5319 H         1 UNK         0.0806 
    113 H113       29.1039   30.8767    7.5919 H         1 UNK         0.0806 
    114 H114       27.7912   31.3438    6.5179 H         1 UNK         0.0806 
    115 H115       29.1600   33.1505    4.1303 H         1 UNK         0.3010 
    116 H116       30.5002   35.1970    5.7151 H         1 UNK         0.0829 
    117 H117       28.4336   35.7035    4.4137 H         1 UNK         0.0813 
    118 H118       29.7746   36.6841    3.8477 H         1 UNK         0.0813 
    119 H119       29.2577   35.2911    2.9086 H         1 UNK         0.0813 
    120 H120       31.5546   32.8974    3.3677 H         1 UNK         0.3038 
    121 H121       34.1129   34.3526    2.9016 H         1 UNK         0.0769 
    122 H122       32.6992   34.2499    0.8087 H         1 UNK         0.0811 
    123 H123       32.6346   32.4985    0.9429 H         1 UNK         0.0811 
    124 H124       34.1721   33.3206    0.6539 H         1 UNK         0.0811 
    125 H125       34.7671   31.6331    1.5494 H         1 UNK         0.3204 
    126 H126       36.0335   30.4602    3.8787 H         1 UNK         0.0748 
    127 H127       37.0691   28.9599    2.1762 H         1 UNK         0.0771 
    128 H128       35.9964   29.5928    0.9359 H         1 UNK         0.0771 
    129 H129       37.1984   30.6403    1.6908 H         1 UNK         0.0771 
    130 H130       32.9351   29.9493    2.4997 H         1 UNK         0.2980 
    131 H131       31.3836   28.4436    2.6091 H         1 UNK         0.0545 
    132 H132       33.5501   26.0118    0.5991 H         1 UNK         0.3459 
    133 H133       33.8666   27.6864    0.9588 H         1 UNK         0.3459 
    134 H134       32.6261   26.9656    4.9584 H         1 UNK         0.0616 
    135 H135       32.1011   28.6097    5.1575 H         1 UNK         0.0616 
    136 H136       30.5907   25.6676    6.5832 H         1 UNK         0.0634 
    137 H137       31.2519   25.0780    5.0724 H         1 UNK         0.0634 
@<TRIPOS>BOND
     1    1    2 1    
     2    1   72 1    
     3    1   73 1    
     4    1   74 1    
     5    2    3 2    
     6    2    4 am   BACKBONE|DICT|INTERRES
     7    4    5 1    
     8    4   75 1    
     9    5    6 1    
    10    5   35 1    
    11    5   76 1    
    12    6    7 1    
    13    6   77 1    
    14    6   78 1    
    15    7    8 1    
    16    8    9 1    
    17    8   79 1    
    18    8   80 1    
    19    9   10 ar   
    20    9   14 ar   
    21   10   11 ar   
    22   10   81 1    
    23   11   12 ar   
    24   11   71 1    
    25   12   13 ar   
    26   12   82 1    
    27   13   14 ar   
    28   13   15 1    
    29   14   83 1    
    30   15   16 1    
    31   15   84 1    
    32   15   85 1    
    33   16   17 1    
    34   17   18 1    
    35   17   86 1    
    36   17   87 1    
    37   18   19 1    
    38   18   37 1    
    39   18   88 1    
    40   19   20 am   BACKBONE|DICT|INTERRES
    41   19   89 1    
    42   20   21 2    
    43   20   22 1    
    44   22   23 1    
    45   22   24 1    
    46   22   90 1    
    47   23   91 1    
    48   23   92 1    
    49   23   93 1    
    50   24   25 am   BACKBONE|DICT|INTERRES
    51   24   94 1    
    52   25   26 2    
    53   25   27 1    
    54   27   28 1    
    55   27   29 1    
    56   27   95 1    
    57   28   96 1    
    58   28   97 1    
    59   28   98 1    
    60   29   30 am   BACKBONE|DICT|INTERRES
    61   29   99 1    
    62   30   31 2    
    63   30   32 1    
    64   32   33 1    
    65   32   34 1    
    66   32  100 1    
    67   33  101 1    
    68   33  102 1    
    69   33  103 1    
    70   34   35 am   BACKBONE|DICT|INTERRES
    71   34  104 1    
    72   35   36 2    
    73   37   38 2    
    74   37   39 am   BACKBONE|DICT|INTERRES
    75   39   40 1    
    76   39  105 1    
    77   40   41 1    
    78   40   42 1    
    79   40  106 1    
    80   41  107 1    
    81   41  108 1    
    82   41  109 1    
    83   42   43 2    
    84   42   44 am   BACKBONE|DICT|INTERRES
    85   44   45 1    
    86   44  110 1    
    87   45   46 1    
    88   45   47 1    
    89   45  111 1    
    90   46  112 1    
    91   46  113 1    
    92   46  114 1    
    93   47   48 2    
    94   47   49 am   BACKBONE|DICT|INTERRES
    95   49   50 1    
    96   49  115 1    
    97   50   51 1    
    98   50   52 1    
    99   50  116 1    
   100   51  117 1    
   101   51  118 1    
   102   51  119 1    
   103   52   53 2    
   104   52   54 am   BACKBONE|DICT|INTERRES
   105   54   55 1    
   106   54  120 1    
   107   55   56 1    
   108   55   57 1    
   109   55  121 1    
   110   56  122 1    
   111   56  123 1    
   112   56  124 1    
   113   57   58 2    
   114   57   59 am   BACKBONE|DICT|INTERRES
   115   59   60 1    
   116   59  125 1    
   117   60   61 1    
   118   60   62 1    
   119   60  126 1    
   120   61  127 1    
   121   61  128 1    
   122   61  129 1    
   123   62   63 2    
   124   62   64 am   BACKBONE|DICT|INTERRES
   125   64   65 1    
   126   64  130 1    
   127   65   66 1    
   128   65   69 1    
   129   65  131 1    
   130   66   67 am   BACKBONE|DICT|INTERRES
   131   66   68 2    
   132   67  132 1    
   133   67  133 1    
   134   69   70 1    
   135   69  134 1    
   136   69  135 1    
   137   70   71 1    
   138   71  136 1    
   139   71  137 1    
@<TRIPOS>SUBSTRUCTURE
     1 UNK         1 GROUP             0       ****    0 ROOT    
