@<TRIPOS>MOLECULE
3R136
137   139    1
SMALL
USER_CHARGES


@<TRIPOS>ATOM
      1 CA         29.6517   28.1663    6.6852 C.3       0 UNK        -0.1979 
      2 C          29.2441   26.9267    5.9077 C.2       0 UNK         0.4864 
      3 O          29.1517   25.8488    6.4973 O.2       0 UNK        -0.5359 
      4 N          29.0026   27.0747    4.5987 N.am      1 UNK        -0.4318 
      5 CA         28.5537   25.9979    3.7146 C.3       1 UNK         0.0824 
      6 C6         29.4111   25.9156    2.4256 C.3       12 UNK        -0.0944 
      7 S7         29.0077   24.4418    1.4183 S.3       12 UNK        -0.2672 
      8 C8         30.5924   23.5434    1.3823 C.3       12 UNK         0.0333 
      9 C9         31.6225   24.3142    0.5743 C.ar      12 UNK        -0.0807 
     10 C10        32.7423   24.8713    1.1927 C.ar      12 UNK        -0.0894 
     11 C11        33.6192   25.6885    0.4723 C.ar      12 UNK        -0.0804 
     12 C12        33.3899   25.9085   -0.8928 C.ar      12 UNK        -0.0824 
     13 C13        32.2909   25.3188   -1.5297 C.ar      12 UNK        -0.0762 
     14 C14        31.4229   24.5128   -0.7913 C.ar      12 UNK        -0.0782 
     15 C15        32.0045   25.5586   -3.0065 C.3       12 UNK         0.0230 
     16 S16        31.3947   27.2398   -3.3823 S.3       12 UNK        -0.2608 
     17 C17        30.2533   27.6649   -2.0202 C.3       12 UNK        -0.0989 
     18 CA         28.7539   27.4549   -2.3503 C.3       5 UNK         0.0716 
     19 N          28.3897   26.0410   -2.4503 N.am      5 UNK        -0.4135 
     20 C          27.2828   25.6012   -3.0635 C.2       4 UNK         0.5031 
     21 O          26.5500   26.3106   -3.7539 O.2       4 UNK        -0.5229 
     22 CA         26.8903   24.1436   -2.8090 C.3       4 UNK         0.0329 
     23 CB         28.0059   23.1459   -3.1761 C.3       4 UNK        -0.2001 
     24 N          26.4903   23.9978   -1.4102 N.am      4 UNK        -0.4303 
     25 C          25.6172   23.0927   -0.9482 C.2       3 UNK         0.5044 
     26 O          25.0772   22.2415   -1.6561 O.2       3 UNK        -0.5152 
     27 CA         25.2815   23.1325    0.5543 C.3       3 UNK         0.0319 
     28 CB         26.0465   22.0290    1.3036 C.3       3 UNK        -0.2001 
     29 N          25.5863   24.4291    1.1658 N.am      3 UNK        -0.4354 
     30 C          24.7470   25.4749    1.2050 C.2       2 UNK         0.4964 
     31 O          23.5954   25.4329    0.7701 O.2       2 UNK        -0.5047 
     32 CA         25.2800   26.8035    1.7791 C.3       2 UNK         0.0288 
     33 CB         24.2919   27.4767    2.7554 C.3       2 UNK        -0.2113 
     34 N          26.6409   26.7106    2.3295 N.am      2 UNK        -0.4145 
     35 C          27.0357   26.1480    3.4839 C.2       1 UNK         0.5006 
     36 O          26.2609   25.7147    4.3379 O.2       1 UNK        -0.5103 
     37 C          27.9134   28.0823   -1.2268 C.2       5 UNK         0.5055 
     38 O          27.7872   27.4724   -0.1623 O.2       5 UNK        -0.5220 
     39 N          27.4497   29.3220   -1.4212 N.am      6 UNK        -0.4450 
     40 CA         26.8472   30.1578   -0.3740 C.3       6 UNK         0.0367 
     41 CB         25.8582   31.1440   -1.0225 C.3       6 UNK        -0.1929 
     42 C          27.9362   30.8656    0.4611 C.2       6 UNK         0.5070 
     43 O          27.8582   32.0735    0.6911 O.2       6 UNK        -0.5237 
     44 N          28.9667   30.1057    0.8484 N.am      7 UNK        -0.4739 
     45 CA         30.1601   30.5875    1.5337 C.3       7 UNK         0.0276 
     46 CB         31.3242   29.6372    1.2254 C.3       7 UNK        -0.1927 
     47 C          29.9387   30.7029    3.0475 C.2       7 UNK         0.5013 
     48 O          29.2210   29.8841    3.6315 O.2       7 UNK        -0.5193 
     49 N          30.5915   31.7120    3.6367 N.am      8 UNK        -0.4253 
     50 CA         30.5794   32.0389    5.0626 C.3       8 UNK         0.0242 
     51 CB         30.9918   33.5160    5.2183 C.3       8 UNK        -0.2000 
     52 C          31.4860   31.1084    5.8911 C.2       8 UNK         0.4948 
     53 O          32.0639   30.1601    5.3562 O.2       8 UNK        -0.5275 
     54 N          31.5974   31.4130    7.1935 N.am      9 UNK        -0.4246 
     55 CA         32.2777   30.6419    8.2457 C.3       9 UNK         0.0261 
     56 CB         32.2621   31.4562    9.5497 C.3       9 UNK        -0.1959 
     57 C          33.7096   30.1606    7.9413 C.2       9 UNK         0.5033 
     58 O          34.1187   29.1394    8.4948 O.2       9 UNK        -0.5390 
     59 N          34.4301   30.8538    7.0480 N.am      10 UNK        -0.4215 
     60 CA         35.7344   30.4409    6.5152 C.3       10 UNK         0.0240 
     61 CB         36.2704   31.5399    5.5835 C.3       10 UNK        -0.1982 
     62 C          35.7085   29.0815    5.7846 C.2       10 UNK         0.4970 
     63 O          36.7187   28.3772    5.7973 O.2       10 UNK        -0.4916 
     64 N          34.5598   28.7326    5.1921 N.am      11 UNK        -0.4279 
     65 CA         34.2681   27.4189    4.6032 C.3       11 UNK         0.1003 
     66 C          33.6275   26.4153    5.6088 C.2       11 UNK         0.5709 
     67 N          33.4588   26.7418    6.8854 N.am      11 UNK        -0.7358 
     68 O          33.2969   25.2954    5.2268 O.2       11 UNK        -0.4999 
     69 C69        33.4158   27.5753    3.3152 C.3       12 UNK        -0.0954 
     70 S70        34.4361   27.9764    1.8545 S.3       12 UNK        -0.2268 
     71 C71        34.8134   26.3253    1.1735 C.3       12 UNK         0.0203 
     72 H72        29.2117   28.1555    7.6820 H         1 UNK         0.0888 
     73 H73        30.7358   28.1931    6.7879 H         1 UNK         0.0888 
     74 H74        29.3260   29.0771    6.1849 H         1 UNK         0.0888 
     75 H75        29.0600   28.0043    4.1872 H         1 UNK         0.3017 
     76 H76        28.6804   25.0382    4.2207 H         1 UNK         0.0873 
     77 H77        29.3186   26.8148    1.8171 H         1 UNK         0.0745 
     78 H78        30.4636   25.8700    2.7071 H         1 UNK         0.0745 
     79 H79        30.9358   23.3682    2.4032 H         1 UNK         0.0705 
     80 H80        30.4377   22.5623    0.9313 H         1 UNK         0.0705 
     81 H81        32.9134   24.6895    2.2447 H         1 UNK         0.1334 
     82 H82        34.0582   26.5448   -1.4569 H         1 UNK         0.1417 
     83 H83        30.5645   24.0637   -1.2665 H         1 UNK         0.1562 
     84 H84        31.2723   24.8387   -3.3760 H         1 UNK         0.0748 
     85 H85        32.9141   25.3800   -3.5815 H         1 UNK         0.0748 
     86 H86        30.4368   28.7221   -1.8181 H         1 UNK         0.0940 
     87 H87        30.5267   27.1542   -1.0965 H         1 UNK         0.0940 
     88 H88        28.5249   27.9567   -3.2932 H         1 UNK         0.0703 
     89 H89        28.9074   25.4108   -1.8594 H         1 UNK         0.3081 
     90 H90        26.0280   23.9351   -3.4466 H         1 UNK         0.0719 
     91 H91        28.8441   23.1908   -2.4832 H         1 UNK         0.0809 
     92 H92        27.6308   22.1224   -3.1681 H         1 UNK         0.0809 
     93 H93        28.3922   23.3388   -4.1779 H         1 UNK         0.0809 
     94 H94        26.8495   24.6892   -0.7664 H         1 UNK         0.2990 
     95 H95        24.2135   22.9291    0.6587 H         1 UNK         0.0690 
     96 H96        25.7819   21.0434    0.9181 H         1 UNK         0.0788 
     97 H97        25.8101   22.0337    2.3678 H         1 UNK         0.0788 
     98 H98        27.1262   22.1372    1.1982 H         1 UNK         0.0788 
     99 H99        26.5184   24.5444    1.5397 H         1 UNK         0.2993 
    100 H100       25.3623   27.4624    0.9151 H         1 UNK         0.0949 
    101 H101       24.6967   28.4086    3.1503 H         1 UNK         0.0767 
    102 H102       23.3545   27.7187    2.2531 H         1 UNK         0.0767 
    103 H103       24.0445   26.8310    3.5980 H         1 UNK         0.0767 
    104 H104       27.3570   26.9957    1.6657 H         1 UNK         0.3013 
    105 H105       27.6287   29.7760   -2.3061 H         1 UNK         0.3121 
    106 H106       26.2800   29.5295    0.3145 H         1 UNK         0.0774 
    107 H107       26.3610   31.8326   -1.7027 H         1 UNK         0.0815 
    108 H108       25.3516   31.7444   -0.2656 H         1 UNK         0.0815 
    109 H109       25.0863   30.6188   -1.5851 H         1 UNK         0.0815 
    110 H110       28.9090   29.1116    0.6725 H         1 UNK         0.2987 
    111 H111       30.4114   31.5745    1.1377 H         1 UNK         0.0949 
    112 H112       31.1254   28.6218    1.5704 H         1 UNK         0.0806 
    113 H113       31.5351   29.5938    0.1575 H         1 UNK         0.0806 
    114 H114       32.2364   29.9805    1.7140 H         1 UNK         0.0806 
    115 H115       31.1922   32.2859    3.0635 H         1 UNK         0.3010 
    116 H116       29.5587   31.9177    5.4320 H         1 UNK         0.0829 
    117 H117       30.3713   34.1660    4.6005 H         1 UNK         0.0813 
    118 H118       30.8784   33.8633    6.2456 H         1 UNK         0.0813 
    119 H119       32.0316   33.6779    4.9304 H         1 UNK         0.0813 
    120 H120       31.0947   32.2260    7.5192 H         1 UNK         0.3038 
    121 H121       31.6794   29.7438    8.4078 H         1 UNK         0.0769 
    122 H122       32.7354   30.9037   10.3630 H         1 UNK         0.0811 
    123 H123       32.7985   32.3998    9.4421 H         1 UNK         0.0811 
    124 H124       31.2438   31.6813    9.8676 H         1 UNK         0.0811 
    125 H125       34.0075   31.6721    6.6352 H         1 UNK         0.3204 
    126 H126       36.4182   30.3428    7.3609 H         1 UNK         0.0748 
    127 H127       37.2533   31.2738    5.1916 H         1 UNK         0.0771 
    128 H128       35.6117   31.7008    4.7289 H         1 UNK         0.0771 
    129 H129       36.3796   32.4889    6.1089 H         1 UNK         0.0771 
    130 H130       33.7602   29.3590    5.2544 H         1 UNK         0.2980 
    131 H131       35.2102   26.9454    4.3218 H         1 UNK         0.0545 
    132 H132       33.0527   26.0615    7.5071 H         1 UNK         0.3459 
    133 H133       33.7665   27.6343    7.2541 H         1 UNK         0.3459 
    134 H134       32.6758   28.3639    3.4518 H         1 UNK         0.0616 
    135 H135       32.8273   26.6888    3.0999 H         1 UNK         0.0616 
    136 H136       35.1734   25.6775    1.9744 H         1 UNK         0.0634 
    137 H137       35.6406   26.4223    0.4689 H         1 UNK         0.0634 
@<TRIPOS>BOND
     1    1    2 1    
     2    1   72 1    
     3    1   73 1    
     4    1   74 1    
     5    2    3 2    
     6    2    4 am   BACKBONE|DICT|INTERRES
     7    4    5 1    
     8    4   75 1    
     9    5    6 1    
    10    5   35 1    
    11    5   76 1    
    12    6    7 1    
    13    6   77 1    
    14    6   78 1    
    15    7    8 1    
    16    8    9 1    
    17    8   79 1    
    18    8   80 1    
    19    9   10 ar   
    20    9   14 ar   
    21   10   11 ar   
    22   10   81 1    
    23   11   12 ar   
    24   11   71 1    
    25   12   13 ar   
    26   12   82 1    
    27   13   14 ar   
    28   13   15 1    
    29   14   83 1    
    30   15   16 1    
    31   15   84 1    
    32   15   85 1    
    33   16   17 1    
    34   17   18 1    
    35   17   86 1    
    36   17   87 1    
    37   18   19 1    
    38   18   37 1    
    39   18   88 1    
    40   19   20 am   BACKBONE|DICT|INTERRES
    41   19   89 1    
    42   20   21 2    
    43   20   22 1    
    44   22   23 1    
    45   22   24 1    
    46   22   90 1    
    47   23   91 1    
    48   23   92 1    
    49   23   93 1    
    50   24   25 am   BACKBONE|DICT|INTERRES
    51   24   94 1    
    52   25   26 2    
    53   25   27 1    
    54   27   28 1    
    55   27   29 1    
    56   27   95 1    
    57   28   96 1    
    58   28   97 1    
    59   28   98 1    
    60   29   30 am   BACKBONE|DICT|INTERRES
    61   29   99 1    
    62   30   31 2    
    63   30   32 1    
    64   32   33 1    
    65   32   34 1    
    66   32  100 1    
    67   33  101 1    
    68   33  102 1    
    69   33  103 1    
    70   34   35 am   BACKBONE|DICT|INTERRES
    71   34  104 1    
    72   35   36 2    
    73   37   38 2    
    74   37   39 am   BACKBONE|DICT|INTERRES
    75   39   40 1    
    76   39  105 1    
    77   40   41 1    
    78   40   42 1    
    79   40  106 1    
    80   41  107 1    
    81   41  108 1    
    82   41  109 1    
    83   42   43 2    
    84   42   44 am   BACKBONE|DICT|INTERRES
    85   44   45 1    
    86   44  110 1    
    87   45   46 1    
    88   45   47 1    
    89   45  111 1    
    90   46  112 1    
    91   46  113 1    
    92   46  114 1    
    93   47   48 2    
    94   47   49 am   BACKBONE|DICT|INTERRES
    95   49   50 1    
    96   49  115 1    
    97   50   51 1    
    98   50   52 1    
    99   50  116 1    
   100   51  117 1    
   101   51  118 1    
   102   51  119 1    
   103   52   53 2    
   104   52   54 am   BACKBONE|DICT|INTERRES
   105   54   55 1    
   106   54  120 1    
   107   55   56 1    
   108   55   57 1    
   109   55  121 1    
   110   56  122 1    
   111   56  123 1    
   112   56  124 1    
   113   57   58 2    
   114   57   59 am   BACKBONE|DICT|INTERRES
   115   59   60 1    
   116   59  125 1    
   117   60   61 1    
   118   60   62 1    
   119   60  126 1    
   120   61  127 1    
   121   61  128 1    
   122   61  129 1    
   123   62   63 2    
   124   62   64 am   BACKBONE|DICT|INTERRES
   125   64   65 1    
   126   64  130 1    
   127   65   66 1    
   128   65   69 1    
   129   65  131 1    
   130   66   67 am   BACKBONE|DICT|INTERRES
   131   66   68 2    
   132   67  132 1    
   133   67  133 1    
   134   69   70 1    
   135   69  134 1    
   136   69  135 1    
   137   70   71 1    
   138   71  136 1    
   139   71  137 1    
@<TRIPOS>SUBSTRUCTURE
     1 UNK         1 GROUP             0       ****    0 ROOT    
