@<TRIPOS>MOLECULE
3R136
137   139    1
SMALL
USER_CHARGES


@<TRIPOS>ATOM
      1 CA         29.7117   22.7348   -3.8100 C.3       0 UNK        -0.1979 
      2 C          29.2293   23.1962   -2.4441 C.2       0 UNK         0.4864 
      3 O          28.6592   24.2833   -2.3355 O.2       0 UNK        -0.5359 
      4 N          29.4382   22.3724   -1.4054 N.am      1 UNK        -0.4318 
      5 CA         29.1129   22.6426    0.0049 C.3       1 UNK         0.0824 
      6 C6         29.4802   21.4565    0.9276 C.3       12 UNK        -0.0944 
      7 S7         31.2615   21.0724    0.8642 S.3       12 UNK        -0.2672 
      8 C8         31.7691   21.3313    2.5959 C.3       12 UNK         0.0333 
      9 C9         31.6804   22.7874    3.0401 C.ar      12 UNK        -0.0807 
     10 C10        32.4249   23.7737    2.3832 C.ar      12 UNK        -0.0894 
     11 C11        32.4014   25.1029    2.8188 C.ar      12 UNK        -0.0804 
     12 C12        31.6261   25.4315    3.9364 C.ar      12 UNK        -0.0824 
     13 C13        30.8635   24.4629    4.5952 C.ar      12 UNK        -0.0762 
     14 C14        30.8969   23.1401    4.1445 C.ar      12 UNK        -0.0782 
     15 C15        30.0471   24.8544    5.8223 C.3       12 UNK         0.0230 
     16 S16        28.2377   24.6551    5.6464 S.3       12 UNK        -0.2608 
     17 C17        27.8678   25.0477    3.9017 C.3       12 UNK        -0.0989 
     18 CA         28.2398   26.4714    3.4135 C.3       5 UNK         0.0716 
     19 N          28.4278   26.4824    1.9557 N.am      5 UNK        -0.4135 
     20 C          29.0190   27.4695    1.2678 C.2       4 UNK         0.5031 
     21 O          29.4009   28.5162    1.7856 O.2       4 UNK        -0.5229 
     22 CA         29.1668   27.3005   -0.2526 C.3       4 UNK         0.0329 
     23 CB         30.4724   26.5672   -0.5968 C.3       4 UNK        -0.2001 
     24 N          28.0376   26.6331   -0.9055 N.am      4 UNK        -0.4303 
     25 C          26.7854   27.1133   -0.9471 C.2       3 UNK         0.5044 
     26 O          26.4097   28.0991   -0.3135 O.2       3 UNK        -0.5152 
     27 CA         25.7873   26.3766   -1.8520 C.3       3 UNK         0.0319 
     28 CB         26.0907   26.6508   -3.3345 C.3       3 UNK        -0.2001 
     29 N          25.8338   24.9382   -1.6036 N.am      3 UNK        -0.4354 
     30 C          24.9649   24.2734   -0.8293 C.2       2 UNK         0.4964 
     31 O          23.9499   24.7760   -0.3455 O.2       2 UNK        -0.5047 
     32 CA         25.2844   22.7975   -0.5181 C.3       2 UNK         0.0288 
     33 CB         24.5461   21.8697   -1.4967 C.3       2 UNK        -0.2113 
     34 N          26.7149   22.4722   -0.5334 N.am      2 UNK        -0.4145 
     35 C          27.6473   23.0581    0.2335 C.2       1 UNK         0.5006 
     36 O          27.3988   23.9387    1.0553 O.2       1 UNK        -0.5103 
     37 C          27.2748   27.5675    3.9256 C.2       5 UNK         0.5055 
     38 O          27.3001   27.8823    5.1158 O.2       5 UNK        -0.5220 
     39 N          26.4908   28.1893    3.0295 N.am      6 UNK        -0.4450 
     40 CA         25.7173   29.4014    3.3193 C.3       6 UNK         0.0367 
     41 CB         24.6903   29.6314    2.1995 C.3       6 UNK        -0.1929 
     42 C          26.5996   30.6543    3.5072 C.2       6 UNK         0.5070 
     43 O          26.1339   31.6271    4.1009 O.2       6 UNK        -0.5237 
     44 N          27.8461   30.6147    3.0172 N.am      7 UNK        -0.4739 
     45 CA         28.8581   31.6611    3.1471 C.3       7 UNK         0.0276 
     46 CB         29.0834   32.3180    1.7725 C.3       7 UNK        -0.1927 
     47 C          30.1445   31.0512    3.7284 C.2       7 UNK         0.5013 
     48 O          31.2383   31.3160    3.2247 O.2       7 UNK        -0.5193 
     49 N          29.9918   30.2427    4.7895 N.am      8 UNK        -0.4253 
     50 CA         31.0566   29.4774    5.4520 C.3       8 UNK         0.0242 
     51 CB         30.4723   28.7440    6.6690 C.3       8 UNK        -0.2000 
     52 C          32.2816   30.3061    5.8752 C.2       8 UNK         0.4948 
     53 O          33.4079   29.8200    5.7754 O.2       8 UNK        -0.5275 
     54 N          32.0421   31.5536    6.3012 N.am      9 UNK        -0.4246 
     55 CA         33.0754   32.5264    6.6599 C.3       9 UNK         0.0261 
     56 CB         32.4134   33.7300    7.3509 C.3       9 UNK        -0.1959 
     57 C          33.9341   32.9959    5.4695 C.2       9 UNK         0.5033 
     58 O          35.0564   33.4509    5.6966 O.2       9 UNK        -0.5390 
     59 N          33.4086   32.8949    4.2396 N.am      10 UNK        -0.4215 
     60 CA         34.1215   33.2450    3.0134 C.3       10 UNK         0.0240 
     61 CB         33.1364   33.7848    1.9618 C.3       10 UNK        -0.1982 
     62 C          34.9060   32.0439    2.4700 C.2       10 UNK         0.4970 
     63 O          36.0860   32.2030    2.1539 O.2       10 UNK        -0.4916 
     64 N          34.2517   30.8775    2.3559 N.am      11 UNK        -0.4279 
     65 CA         34.8775   29.6595    1.8129 C.3       11 UNK         0.1003 
     66 C          35.8311   28.9153    2.7912 C.2       11 UNK         0.5709 
     67 N          35.7144   29.0907    4.1018 N.am      11 UNK        -0.7358 
     68 O          36.7078   28.1777    2.3470 O.2       11 UNK        -0.4999 
     69 C69        33.8534   28.7179    1.1275 C.3       12 UNK        -0.0954 
     70 S70        32.7071   27.8707    2.2643 S.3       12 UNK        -0.2268 
     71 C71        33.2603   26.1374    2.0883 C.3       12 UNK         0.0203 
     72 H72        30.1886   21.7559   -3.7657 H         1 UNK         0.0888 
     73 H73        28.8724   22.6740   -4.5022 H         1 UNK         0.0888 
     74 H74        30.4329   23.4466   -4.2103 H         1 UNK         0.0888 
     75 H75        29.9219   21.4999   -1.5659 H         1 UNK         0.3017 
     76 H76        29.7231   23.4942    0.3084 H         1 UNK         0.0873 
     77 H77        29.1989   21.6722    1.9606 H         1 UNK         0.0745 
     78 H78        28.9258   20.5599    0.6440 H         1 UNK         0.0745 
     79 H79        32.8010   20.9961    2.7086 H         1 UNK         0.0705 
     80 H80        31.1687   20.6871    3.2403 H         1 UNK         0.0705 
     81 H81        33.0380   23.4981    1.5356 H         1 UNK         0.1334 
     82 H82        31.6187   26.4452    4.3073 H         1 UNK         0.1417 
     83 H83        30.3228   22.3865    4.6666 H         1 UNK         0.1562 
     84 H84        30.2485   25.8890    6.0961 H         1 UNK         0.0748 
     85 H85        30.3792   24.2560    6.6717 H         1 UNK         0.0748 
     86 H86        26.8127   24.8417    3.7121 H         1 UNK         0.0940 
     87 H87        28.4131   24.3058    3.3188 H         1 UNK         0.0940 
     88 H88        29.2095   26.7307    3.8378 H         1 UNK         0.0703 
     89 H89        28.0939   25.6596    1.4597 H         1 UNK         0.3081 
     90 H90        29.2288   28.3029   -0.6815 H         1 UNK         0.0719 
     91 H91        30.5286   25.5895   -0.1203 H         1 UNK         0.0809 
     92 H92        30.5808   26.4251   -1.6721 H         1 UNK         0.0809 
     93 H93        31.3355   27.1416   -0.2611 H         1 UNK         0.0809 
     94 H94        28.2602   25.8034   -1.4536 H         1 UNK         0.2990 
     95 H95        24.7902   26.7679   -1.6384 H         1 UNK         0.0690 
     96 H96        27.0713   26.2736   -3.6279 H         1 UNK         0.0788 
     97 H97        26.0755   27.7213   -3.5441 H         1 UNK         0.0788 
     98 H98        25.3476   26.1837   -3.9809 H         1 UNK         0.0788 
     99 H99        26.6643   24.4553   -1.9294 H         1 UNK         0.2993 
    100 H100       24.9170   22.5972    0.4907 H         1 UNK         0.0949 
    101 H101       24.8960   22.0037   -2.5212 H         1 UNK         0.0767 
    102 H102       24.6799   20.8214   -1.2289 H         1 UNK         0.0767 
    103 H103       23.4734   22.0691   -1.4898 H         1 UNK         0.0767 
    104 H104       27.0153   21.7727   -1.1967 H         1 UNK         0.3013 
    105 H105       26.5372   27.9049    2.0589 H         1 UNK         0.3121 
    106 H106       25.1718   29.2415    4.2519 H         1 UNK         0.0774 
    107 H107       24.0375   30.4720    2.4384 H         1 UNK         0.0815 
    108 H108       25.1742   29.8586    1.2491 H         1 UNK         0.0815 
    109 H109       24.0542   28.7582    2.0537 H         1 UNK         0.0815 
    110 H110       28.1790   29.7642    2.5667 H         1 UNK         0.2987 
    111 H111       28.5287   32.4305    3.8485 H         1 UNK         0.0949 
    112 H112       29.4653   31.6002    1.0451 H         1 UNK         0.0806 
    113 H113       28.1582   32.7372    1.3772 H         1 UNK         0.0806 
    114 H114       29.8053   33.1327    1.8406 H         1 UNK         0.0806 
    115 H115       29.0505   30.0736    5.1159 H         1 UNK         0.3010 
    116 H116       31.4011   28.7339    4.7337 H         1 UNK         0.0829 
    117 H117       31.2223   28.1042    7.1363 H         1 UNK         0.0813 
    118 H118       30.1189   29.4415    7.4293 H         1 UNK         0.0813 
    119 H119       29.6329   28.1095    6.3880 H         1 UNK         0.0813 
    120 H120       31.0832   31.8657    6.3493 H         1 UNK         0.3038 
    121 H121       33.7482   32.0488    7.3755 H         1 UNK         0.0769 
    122 H122       33.1612   34.4614    7.6610 H         1 UNK         0.0811 
    123 H123       31.8710   33.4260    8.2463 H         1 UNK         0.0811 
    124 H124       31.7133   34.2414    6.6890 H         1 UNK         0.0811 
    125 H125       32.5060   32.4435    4.1172 H         1 UNK         0.3204 
    126 H126       34.8361   34.0430    3.2276 H         1 UNK         0.0748 
    127 H127       33.6682   34.1179    1.0697 H         1 UNK         0.0771 
    128 H128       32.4166   33.0303    1.6442 H         1 UNK         0.0771 
    129 H129       32.5781   34.6395    2.3440 H         1 UNK         0.0771 
    130 H130       33.2802   30.8099    2.6369 H         1 UNK         0.2980 
    131 H131       35.5285   29.9913    1.0012 H         1 UNK         0.0545 
    132 H132       34.9354   29.6065    4.4963 H         1 UNK         0.3459 
    133 H133       36.3482   28.6068    4.7162 H         1 UNK         0.3459 
    134 H134       33.2518   29.2872    0.4173 H         1 UNK         0.0616 
    135 H135       34.3815   27.9759    0.5265 H         1 UNK         0.0616 
    136 H136       34.2859   26.0584    2.4509 H         1 UNK         0.0634 
    137 H137       33.2820   25.8940    1.0249 H         1 UNK         0.0634 
@<TRIPOS>BOND
     1    1    2 1    
     2    1   72 1    
     3    1   73 1    
     4    1   74 1    
     5    2    3 2    
     6    2    4 am   BACKBONE|DICT|INTERRES
     7    4    5 1    
     8    4   75 1    
     9    5    6 1    
    10    5   35 1    
    11    5   76 1    
    12    6    7 1    
    13    6   77 1    
    14    6   78 1    
    15    7    8 1    
    16    8    9 1    
    17    8   79 1    
    18    8   80 1    
    19    9   10 ar   
    20    9   14 ar   
    21   10   11 ar   
    22   10   81 1    
    23   11   12 ar   
    24   11   71 1    
    25   12   13 ar   
    26   12   82 1    
    27   13   14 ar   
    28   13   15 1    
    29   14   83 1    
    30   15   16 1    
    31   15   84 1    
    32   15   85 1    
    33   16   17 1    
    34   17   18 1    
    35   17   86 1    
    36   17   87 1    
    37   18   19 1    
    38   18   37 1    
    39   18   88 1    
    40   19   20 am   BACKBONE|DICT|INTERRES
    41   19   89 1    
    42   20   21 2    
    43   20   22 1    
    44   22   23 1    
    45   22   24 1    
    46   22   90 1    
    47   23   91 1    
    48   23   92 1    
    49   23   93 1    
    50   24   25 am   BACKBONE|DICT|INTERRES
    51   24   94 1    
    52   25   26 2    
    53   25   27 1    
    54   27   28 1    
    55   27   29 1    
    56   27   95 1    
    57   28   96 1    
    58   28   97 1    
    59   28   98 1    
    60   29   30 am   BACKBONE|DICT|INTERRES
    61   29   99 1    
    62   30   31 2    
    63   30   32 1    
    64   32   33 1    
    65   32   34 1    
    66   32  100 1    
    67   33  101 1    
    68   33  102 1    
    69   33  103 1    
    70   34   35 am   BACKBONE|DICT|INTERRES
    71   34  104 1    
    72   35   36 2    
    73   37   38 2    
    74   37   39 am   BACKBONE|DICT|INTERRES
    75   39   40 1    
    76   39  105 1    
    77   40   41 1    
    78   40   42 1    
    79   40  106 1    
    80   41  107 1    
    81   41  108 1    
    82   41  109 1    
    83   42   43 2    
    84   42   44 am   BACKBONE|DICT|INTERRES
    85   44   45 1    
    86   44  110 1    
    87   45   46 1    
    88   45   47 1    
    89   45  111 1    
    90   46  112 1    
    91   46  113 1    
    92   46  114 1    
    93   47   48 2    
    94   47   49 am   BACKBONE|DICT|INTERRES
    95   49   50 1    
    96   49  115 1    
    97   50   51 1    
    98   50   52 1    
    99   50  116 1    
   100   51  117 1    
   101   51  118 1    
   102   51  119 1    
   103   52   53 2    
   104   52   54 am   BACKBONE|DICT|INTERRES
   105   54   55 1    
   106   54  120 1    
   107   55   56 1    
   108   55   57 1    
   109   55  121 1    
   110   56  122 1    
   111   56  123 1    
   112   56  124 1    
   113   57   58 2    
   114   57   59 am   BACKBONE|DICT|INTERRES
   115   59   60 1    
   116   59  125 1    
   117   60   61 1    
   118   60   62 1    
   119   60  126 1    
   120   61  127 1    
   121   61  128 1    
   122   61  129 1    
   123   62   63 2    
   124   62   64 am   BACKBONE|DICT|INTERRES
   125   64   65 1    
   126   64  130 1    
   127   65   66 1    
   128   65   69 1    
   129   65  131 1    
   130   66   67 am   BACKBONE|DICT|INTERRES
   131   66   68 2    
   132   67  132 1    
   133   67  133 1    
   134   69   70 1    
   135   69  134 1    
   136   69  135 1    
   137   70   71 1    
   138   71  136 1    
   139   71  137 1    
@<TRIPOS>SUBSTRUCTURE
     1 UNK         1 GROUP             0       ****    0 ROOT    
