@<TRIPOS>MOLECULE
3R136
137   139    1
SMALL
USER_CHARGES


@<TRIPOS>ATOM
      1 CA         35.7080   23.7637   -0.1423 C.3       0 UNK        -0.1979 
      2 C          34.3395   24.3354    0.1942 C.2       0 UNK         0.4864 
      3 O          34.2529   25.4460    0.7208 O.2       0 UNK        -0.5359 
      4 N          33.2685   23.5850   -0.0933 N.am      1 UNK        -0.4318 
      5 CA         31.8879   24.0204    0.1262 C.3       1 UNK         0.0824 
      6 C6         30.8749   22.8461    0.0953 C.3       12 UNK        -0.0944 
      7 S7         31.2061   21.4395    1.2170 S.3       12 UNK        -0.2672 
      8 C8         31.7899   22.1917    2.7742 C.3       12 UNK         0.0333 
      9 C9         30.7910   23.1592    3.4000 C.ar      12 UNK        -0.0807 
     10 C10        31.1909   24.4630    3.7026 C.ar      12 UNK        -0.0894 
     11 C11        30.2987   25.3624    4.2881 C.ar      12 UNK        -0.0804 
     12 C12        29.0031   24.9466    4.6017 C.ar      12 UNK        -0.0824 
     13 C13        28.5873   23.6444    4.3090 C.ar      12 UNK        -0.0762 
     14 C14        29.4862   22.7549    3.7070 C.ar      12 UNK        -0.0782 
     15 C15        27.1773   23.1906    4.6625 C.3       12 UNK         0.0230 
     16 S16        25.9305   23.8446    3.5039 S.3       12 UNK        -0.2608 
     17 C17        25.4841   25.4514    4.2565 C.3       12 UNK        -0.0989 
     18 CA         25.8488   26.6661    3.3609 C.3       5 UNK         0.0716 
     19 N          25.1949   26.5798    2.0466 N.am      5 UNK        -0.4135 
     20 C          25.5925   27.2120    0.9372 C.2       4 UNK         0.5031 
     21 O          26.5544   27.9856    0.9000 O.2       4 UNK        -0.5229 
     22 CA         24.7656   26.9853   -0.3315 C.3       4 UNK         0.0329 
     23 CB         23.5798   27.9624   -0.4019 C.3       4 UNK        -0.2001 
     24 N          25.6598   27.2100   -1.4586 N.am      4 UNK        -0.4303 
     25 C          25.6490   26.5574   -2.6240 C.2       3 UNK         0.5044 
     26 O          24.7531   25.7873   -2.9729 O.2       3 UNK        -0.5152 
     27 CA         26.8607   26.7822   -3.5522 C.3       3 UNK         0.0319 
     28 CB         26.5313   27.8412   -4.6168 C.3       3 UNK        -0.2001 
     29 N          28.0965   27.1676   -2.8530 N.am      3 UNK        -0.4354 
     30 C          28.7303   26.4176   -1.9387 C.2       2 UNK         0.4964 
     31 O          28.3397   25.3021   -1.5844 O.2       2 UNK        -0.5047 
     32 CA         29.9931   27.0335   -1.3046 C.3       2 UNK         0.0288 
     33 CB         29.6535   28.2678   -0.4512 C.3       2 UNK        -0.2113 
     34 N          30.6770   26.0610   -0.4531 N.am      2 UNK        -0.4145 
     35 C          31.4810   25.0915   -0.9040 C.2       1 UNK         0.5006 
     36 O          31.8581   24.9960   -2.0759 O.2       1 UNK        -0.5103 
     37 C          25.5442   28.0198    4.0522 C.2       5 UNK         0.5055 
     38 O          25.0105   28.0447    5.1624 O.2       5 UNK        -0.5220 
     39 N          25.8639   29.1238    3.3671 N.am      6 UNK        -0.4450 
     40 CA         25.5154   30.5006    3.7233 C.3       6 UNK         0.0367 
     41 CB         24.8695   31.1682    2.4938 C.3       6 UNK        -0.1929 
     42 C          26.7290   31.2931    4.2441 C.2       6 UNK         0.5070 
     43 O          26.8107   32.4994    4.0086 O.2       6 UNK        -0.5237 
     44 N          27.6437   30.6068    4.9467 N.am      7 UNK        -0.4739 
     45 CA         28.8665   31.1380    5.5684 C.3       7 UNK         0.0276 
     46 CB         28.5189   32.0801    6.7413 C.3       7 UNK        -0.1927 
     47 C          29.8349   31.7767    4.5490 C.2       7 UNK         0.5013 
     48 O          30.3026   32.8987    4.7536 O.2       7 UNK        -0.5193 
     49 N          30.1043   31.0440    3.4631 N.am      8 UNK        -0.4253 
     50 CA         31.0021   31.4251    2.3729 C.3       8 UNK         0.0242 
     51 CB         30.1504   31.7494    1.1319 C.3       8 UNK        -0.2000 
     52 C          31.9905   30.2825    2.0942 C.2       8 UNK         0.4948 
     53 O          31.8589   29.2051    2.6784 O.2       8 UNK        -0.5275 
     54 N          32.9612   30.5328    1.2030 N.am      9 UNK        -0.4246 
     55 CA         34.0361   29.6142    0.7997 C.3       9 UNK         0.0261 
     56 CB         33.4726   28.4392   -0.0270 C.3       9 UNK        -0.1959 
     57 C          34.8910   29.1991    2.0135 C.2       9 UNK         0.5033 
     58 O          35.4244   30.0917    2.6768 O.2       9 UNK        -0.5390 
     59 N          34.9923   27.8952    2.3215 N.am      10 UNK        -0.4215 
     60 CA         35.7200   27.3761    3.4900 C.3       10 UNK         0.0240 
     61 CB         35.7221   25.8392    3.4677 C.3       10 UNK        -0.1982 
     62 C          35.2088   27.8842    4.8529 C.2       10 UNK         0.4970 
     63 O          35.9822   27.8799    5.8119 O.2       10 UNK        -0.4916 
     64 N          33.9450   28.3233    4.9199 N.am      11 UNK        -0.4279 
     65 CA         33.3627   28.9770    6.1016 C.3       11 UNK         0.1003 
     66 C          33.7244   30.4876    6.2233 C.2       11 UNK         0.5709 
     67 N          34.4012   31.1045    5.2601 N.am      11 UNK        -0.7358 
     68 O          33.3924   31.1144    7.2264 O.2       11 UNK        -0.4999 
     69 C69        31.8302   28.7644    6.1823 C.3       12 UNK        -0.0954 
     70 S70        31.3433   27.0088    6.2493 S.3       12 UNK        -0.2268 
     71 C71        30.7339   26.7900    4.5539 C.3       12 UNK         0.0203 
     72 H72        36.2527   24.4532   -0.7866 H         1 UNK         0.0888 
     73 H73        36.2871   23.6176    0.7688 H         1 UNK         0.0888 
     74 H74        35.6339   22.8055   -0.6560 H         1 UNK         0.0888 
     75 H75        33.3826   22.6874   -0.5410 H         1 UNK         0.3017 
     76 H76        31.8457   24.4897    1.1073 H         1 UNK         0.0873 
     77 H77        29.8751   23.2155    0.3340 H         1 UNK         0.0745 
     78 H78        30.8045   22.4377   -0.9150 H         1 UNK         0.0745 
     79 H79        31.9882   21.3917    3.4886 H         1 UNK         0.0705 
     80 H80        32.7504   22.6774    2.5965 H         1 UNK         0.0705 
     81 H81        32.1989   24.7847    3.4774 H         1 UNK         0.1334 
     82 H82        28.3210   25.6399    5.0721 H         1 UNK         0.1417 
     83 H83        29.1753   21.7440    3.4798 H         1 UNK         0.1562 
     84 H84        26.9352   23.4775    5.6867 H         1 UNK         0.0748 
     85 H85        27.1211   22.1011    4.6407 H         1 UNK         0.0748 
     86 H86        25.9617   25.5400    5.2335 H         1 UNK         0.0940 
     87 H87        24.4110   25.4384    4.4573 H         1 UNK         0.0940 
     88 H88        26.9285   26.6397    3.1984 H         1 UNK         0.0703 
     89 H89        24.3843   25.9796    2.0007 H         1 UNK         0.3081 
     90 H90        24.4054   25.9542   -0.3407 H         1 UNK         0.0719 
     91 H91        23.9119   29.0013   -0.3737 H         1 UNK         0.0809 
     92 H92        23.0045   27.8203   -1.3169 H         1 UNK         0.0809 
     93 H93        22.8980   27.8138    0.4364 H         1 UNK         0.0809 
     94 H94        26.4602   27.7864   -1.2291 H         1 UNK         0.2990 
     95 H95        27.0550   25.8358   -4.0612 H         1 UNK         0.0690 
     96 H96        27.3395   27.9422   -5.3414 H         1 UNK         0.0788 
     97 H97        26.3534   28.8206   -4.1705 H         1 UNK         0.0788 
     98 H98        25.6331   27.5690   -5.1731 H         1 UNK         0.0788 
     99 H99        28.4802   28.0721   -3.0880 H         1 UNK         0.2993 
    100 H100       30.6614   27.3379   -2.1133 H         1 UNK         0.0949 
    101 H101       29.0731   28.0002    0.4312 H         1 UNK         0.0767 
    102 H102       30.5587   28.7640   -0.1054 H         1 UNK         0.0767 
    103 H103       29.0800   29.0068   -1.0115 H         1 UNK         0.0767 
    104 H104       30.3801   26.0352    0.5112 H         1 UNK         0.3013 
    105 H105       26.2991   28.9868    2.4563 H         1 UNK         0.3121 
    106 H106       24.7763   30.5009    4.5271 H         1 UNK         0.0774 
    107 H107       25.5738   31.2503    1.6649 H         1 UNK         0.0815 
    108 H108       24.5196   32.1743    2.7284 H         1 UNK         0.0815 
    109 H109       24.0058   30.6025    2.1439 H         1 UNK         0.0815 
    110 H110       27.4718   29.6204    5.0819 H         1 UNK         0.2987 
    111 H111       29.3855   30.2807    5.9952 H         1 UNK         0.0949 
    112 H112       27.8642   31.5915    7.4628 H         1 UNK         0.0806 
    113 H113       29.4195   32.3839    7.2765 H         1 UNK         0.0806 
    114 H114       28.0230   32.9892    6.3997 H         1 UNK         0.0806 
    115 H115       29.7387   30.1043    3.4025 H         1 UNK         0.3010 
    116 H116       31.5885   32.3038    2.6498 H         1 UNK         0.0829 
    117 H117       30.7693   32.0346    0.2807 H         1 UNK         0.0813 
    118 H118       29.5427   30.8974    0.8265 H         1 UNK         0.0813 
    119 H119       29.4739   32.5813    1.3296 H         1 UNK         0.0813 
    120 H120       33.0127   31.4587    0.8019 H         1 UNK         0.3038 
    121 H121       34.6989   30.1837    0.1465 H         1 UNK         0.0769 
    122 H122       32.8160   27.7973    0.5609 H         1 UNK         0.0811 
    123 H123       34.2767   27.8206   -0.4267 H         1 UNK         0.0811 
    124 H124       32.9015   28.7999   -0.8821 H         1 UNK         0.0811 
    125 H125       34.5503   27.2032    1.7210 H         1 UNK         0.3204 
    126 H126       36.7544   27.7136    3.3984 H         1 UNK         0.0748 
    127 H127       36.2450   25.4323    4.3344 H         1 UNK         0.0771 
    128 H128       34.7094   25.4347    3.4776 H         1 UNK         0.0771 
    129 H129       36.2307   25.4594    2.5821 H         1 UNK         0.0771 
    130 H130       33.3772   28.3370    4.0816 H         1 UNK         0.2980 
    131 H131       33.7901   28.5064    6.9889 H         1 UNK         0.0545 
    132 H132       34.7085   30.6137    4.4264 H         1 UNK         0.3459 
    133 H133       34.6261   32.0796    5.3730 H         1 UNK         0.3459 
    134 H134       31.3466   29.2433    5.3322 H         1 UNK         0.0616 
    135 H135       31.4246   29.2422    7.0759 H         1 UNK         0.0616 
    136 H136       31.5308   27.0516    3.8598 H         1 UNK         0.0634 
    137 H137       29.9091   27.4783    4.3630 H         1 UNK         0.0634 
@<TRIPOS>BOND
     1    1    2 1    
     2    1   72 1    
     3    1   73 1    
     4    1   74 1    
     5    2    3 2    
     6    2    4 am   BACKBONE|DICT|INTERRES
     7    4    5 1    
     8    4   75 1    
     9    5    6 1    
    10    5   35 1    
    11    5   76 1    
    12    6    7 1    
    13    6   77 1    
    14    6   78 1    
    15    7    8 1    
    16    8    9 1    
    17    8   79 1    
    18    8   80 1    
    19    9   10 ar   
    20    9   14 ar   
    21   10   11 ar   
    22   10   81 1    
    23   11   12 ar   
    24   11   71 1    
    25   12   13 ar   
    26   12   82 1    
    27   13   14 ar   
    28   13   15 1    
    29   14   83 1    
    30   15   16 1    
    31   15   84 1    
    32   15   85 1    
    33   16   17 1    
    34   17   18 1    
    35   17   86 1    
    36   17   87 1    
    37   18   19 1    
    38   18   37 1    
    39   18   88 1    
    40   19   20 am   BACKBONE|DICT|INTERRES
    41   19   89 1    
    42   20   21 2    
    43   20   22 1    
    44   22   23 1    
    45   22   24 1    
    46   22   90 1    
    47   23   91 1    
    48   23   92 1    
    49   23   93 1    
    50   24   25 am   BACKBONE|DICT|INTERRES
    51   24   94 1    
    52   25   26 2    
    53   25   27 1    
    54   27   28 1    
    55   27   29 1    
    56   27   95 1    
    57   28   96 1    
    58   28   97 1    
    59   28   98 1    
    60   29   30 am   BACKBONE|DICT|INTERRES
    61   29   99 1    
    62   30   31 2    
    63   30   32 1    
    64   32   33 1    
    65   32   34 1    
    66   32  100 1    
    67   33  101 1    
    68   33  102 1    
    69   33  103 1    
    70   34   35 am   BACKBONE|DICT|INTERRES
    71   34  104 1    
    72   35   36 2    
    73   37   38 2    
    74   37   39 am   BACKBONE|DICT|INTERRES
    75   39   40 1    
    76   39  105 1    
    77   40   41 1    
    78   40   42 1    
    79   40  106 1    
    80   41  107 1    
    81   41  108 1    
    82   41  109 1    
    83   42   43 2    
    84   42   44 am   BACKBONE|DICT|INTERRES
    85   44   45 1    
    86   44  110 1    
    87   45   46 1    
    88   45   47 1    
    89   45  111 1    
    90   46  112 1    
    91   46  113 1    
    92   46  114 1    
    93   47   48 2    
    94   47   49 am   BACKBONE|DICT|INTERRES
    95   49   50 1    
    96   49  115 1    
    97   50   51 1    
    98   50   52 1    
    99   50  116 1    
   100   51  117 1    
   101   51  118 1    
   102   51  119 1    
   103   52   53 2    
   104   52   54 am   BACKBONE|DICT|INTERRES
   105   54   55 1    
   106   54  120 1    
   107   55   56 1    
   108   55   57 1    
   109   55  121 1    
   110   56  122 1    
   111   56  123 1    
   112   56  124 1    
   113   57   58 2    
   114   57   59 am   BACKBONE|DICT|INTERRES
   115   59   60 1    
   116   59  125 1    
   117   60   61 1    
   118   60   62 1    
   119   60  126 1    
   120   61  127 1    
   121   61  128 1    
   122   61  129 1    
   123   62   63 2    
   124   62   64 am   BACKBONE|DICT|INTERRES
   125   64   65 1    
   126   64  130 1    
   127   65   66 1    
   128   65   69 1    
   129   65  131 1    
   130   66   67 am   BACKBONE|DICT|INTERRES
   131   66   68 2    
   132   67  132 1    
   133   67  133 1    
   134   69   70 1    
   135   69  134 1    
   136   69  135 1    
   137   70   71 1    
   138   71  136 1    
   139   71  137 1    
@<TRIPOS>SUBSTRUCTURE
     1 UNK         1 GROUP             0       ****    0 ROOT    
