@<TRIPOS>MOLECULE
3R136
137   139    1
SMALL
USER_CHARGES


@<TRIPOS>ATOM
      1 CA         26.6701   22.2208   -3.1792 C.3       0 UNK        -0.1979 
      2 C          27.8894   22.4301   -2.2932 C.2       0 UNK         0.4864 
      3 O          28.7874   23.1880   -2.6634 O.2       0 UNK        -0.5359 
      4 N          27.9238   21.7605   -1.1331 N.am      1 UNK        -0.4318 
      5 CA         28.9500   21.9210   -0.0981 C.3       1 UNK         0.0824 
      6 C6         29.3492   20.5498    0.5131 C.3       12 UNK        -0.0944 
      7 S7         30.9215   20.4938    1.4517 S.3       12 UNK        -0.2672 
      8 C8         32.1550   21.2385    0.3291 C.3       12 UNK         0.0333 
      9 C9         32.3120   22.7429    0.5370 C.ar      12 UNK        -0.0807 
     10 C10        32.7010   23.2436    1.7837 C.ar      12 UNK        -0.0894 
     11 C11        32.8818   24.6153    1.9870 C.ar      12 UNK        -0.0804 
     12 C12        32.6701   25.4902    0.9120 C.ar      12 UNK        -0.0824 
     13 C13        32.2768   25.0090   -0.3406 C.ar      12 UNK        -0.0762 
     14 C14        32.1102   23.6332   -0.5230 C.ar      12 UNK        -0.0782 
     15 C15        32.0566   25.9672   -1.5089 C.3       12 UNK         0.0230 
     16 S16        30.8842   27.3156   -1.1361 S.3       12 UNK        -0.2608 
     17 C17        29.3877   26.3707   -0.6942 C.3       12 UNK        -0.0989 
     18 CA         28.1981   27.2584   -0.2523 C.3       5 UNK         0.0716 
     19 N          27.0023   26.4507   -0.0387 N.am      5 UNK        -0.4135 
     20 C          25.7455   26.9087   -0.0352 C.2       4 UNK         0.5031 
     21 O          25.4225   28.0381   -0.4059 O.2       4 UNK        -0.5229 
     22 CA         24.6804   25.9563    0.5328 C.3       4 UNK         0.0329 
     23 CB         24.4609   24.7329   -0.3745 C.3       4 UNK        -0.2001 
     24 N          25.0502   25.5292    1.8856 N.am      4 UNK        -0.4303 
     25 C          24.9321   26.3024    2.9758 C.2       3 UNK         0.5044 
     26 O          24.3557   27.3909    2.9746 O.2       3 UNK        -0.5152 
     27 CA         25.5812   25.8175    4.2858 C.3       3 UNK         0.0319 
     28 CB         24.6333   24.9109    5.0959 C.3       3 UNK        -0.2001 
     29 N          26.9114   25.2262    4.0946 N.am      3 UNK        -0.4354 
     30 C          27.2374   24.0453    3.5578 C.2       2 UNK         0.4964 
     31 O          26.4185   23.1709    3.2645 O.2       2 UNK        -0.5047 
     32 CA         28.7371   23.8332    3.2721 C.3       2 UNK         0.0288 
     33 CB         29.4683   23.3261    4.5253 C.3       2 UNK        -0.2113 
     34 N          29.0044   22.9099    2.1641 N.am      2 UNK        -0.4145 
     35 C          28.4990   22.9880    0.9259 C.2       1 UNK         0.5006 
     36 O          27.7169   23.8734    0.5739 O.2       1 UNK        -0.5103 
     37 C          28.5058   28.0021    1.0605 C.2       5 UNK         0.5055 
     38 O          28.5990   27.3591    2.1082 O.2       5 UNK        -0.5220 
     39 N          28.6709   29.3273    0.9753 N.am      6 UNK        -0.4450 
     40 CA         29.0817   30.1757    2.0964 C.3       6 UNK         0.0367 
     41 CB         28.3035   31.4997    2.0406 C.3       6 UNK        -0.1929 
     42 C          30.5924   30.4586    2.0952 C.2       6 UNK         0.5070 
     43 O          31.1235   30.8476    3.1375 O.2       6 UNK        -0.5237 
     44 N          31.2586   30.2841    0.9428 N.am      7 UNK        -0.4739 
     45 CA         32.6448   30.6839    0.6646 C.3       7 UNK         0.0276 
     46 CB         33.6390   29.7879    1.4367 C.3       7 UNK        -0.1927 
     47 C          32.8369   32.1967    0.9011 C.2       7 UNK         0.5013 
     48 O          31.9728   32.9804    0.5014 O.2       7 UNK        -0.5193 
     49 N          33.9164   32.5922    1.5868 N.am      8 UNK        -0.4253 
     50 CA         34.1722   33.9660    2.0320 C.3       8 UNK         0.0242 
     51 CB         35.6950   34.1787    2.1321 C.3       8 UNK        -0.2000 
     52 C          33.4393   34.2773    3.3555 C.2       8 UNK         0.4948 
     53 O          34.0577   34.7965    4.2863 O.2       8 UNK        -0.5275 
     54 N          32.1443   33.9254    3.4203 N.am      9 UNK        -0.4246 
     55 CA         31.2532   33.9789    4.5885 C.3       9 UNK         0.0261 
     56 CB         30.9254   35.4409    4.9588 C.3       9 UNK        -0.1959 
     57 C          31.8033   33.1603    5.7751 C.2       9 UNK         0.5033 
     58 O          31.8849   33.6679    6.8962 O.2       9 UNK        -0.5390 
     59 N          32.2011   31.9159    5.4850 N.am      10 UNK        -0.4215 
     60 CA         32.8935   31.0135    6.4081 C.3       10 UNK         0.0240 
     61 CB         34.3760   30.9280    6.0055 C.3       10 UNK        -0.1982 
     62 C          32.2706   29.6106    6.4516 C.2       10 UNK         0.4970 
     63 O          32.3097   28.9801    7.5088 O.2       10 UNK        -0.4916 
     64 N          31.7163   29.1426    5.3266 N.am      11 UNK        -0.4279 
     65 CA         31.0955   27.8145    5.1859 C.3       11 UNK         0.1003 
     66 C          29.5590   27.8218    5.4261 C.2       11 UNK         0.5709 
     67 N          28.9347   28.9528    5.7356 N.am      11 UNK        -0.7358 
     68 O          28.9222   26.7747    5.3580 O.2       11 UNK        -0.4999 
     69 C69        31.4681   27.1566    3.8308 C.3       12 UNK        -0.0954 
     70 S70        33.2647   26.8855    3.6729 S.3       12 UNK        -0.2268 
     71 C71        33.3414   25.0860    3.3707 C.3       12 UNK         0.0203 
     72 H72        26.1473   23.1660   -3.3233 H         1 UNK         0.0888 
     73 H73        26.9754   21.8466   -4.1560 H         1 UNK         0.0888 
     74 H74        25.9682   21.5080   -2.7468 H         1 UNK         0.0888 
     75 H75        27.1365   21.1817   -0.8772 H         1 UNK         0.3017 
     76 H76        29.8295   22.3326   -0.5820 H         1 UNK         0.0873 
     77 H77        29.4490   19.8157   -0.2885 H         1 UNK         0.0745 
     78 H78        28.5503   20.1712    1.1537 H         1 UNK         0.0745 
     79 H79        31.9008   21.0008   -0.7051 H         1 UNK         0.0705 
     80 H80        33.1197   20.7657    0.5183 H         1 UNK         0.0705 
     81 H81        32.8730   22.5557    2.6006 H         1 UNK         0.1334 
     82 H82        32.8088   26.5531    1.0334 H         1 UNK         0.1417 
     83 H83        31.8240   23.2555   -1.4957 H         1 UNK         0.1562 
     84 H84        31.6953   25.4302   -2.3875 H         1 UNK         0.0748 
     85 H85        33.0156   26.4048   -1.7891 H         1 UNK         0.0748 
     86 H86        29.6444   25.6645    0.0973 H         1 UNK         0.0940 
     87 H87        29.1013   25.7664   -1.5568 H         1 UNK         0.0940 
     88 H88        27.9918   27.9810   -1.0448 H         1 UNK         0.0703 
     89 H89        27.1777   25.4982    0.2827 H         1 UNK         0.3081 
     90 H90        23.7360   26.5027    0.5843 H         1 UNK         0.0719 
     91 H91        24.1841   25.0430   -1.3829 H         1 UNK         0.0809 
     92 H92        25.3525   24.1127   -0.4597 H         1 UNK         0.0809 
     93 H93        23.6546   24.1038    0.0026 H         1 UNK         0.0809 
     94 H94        25.5380   24.6452    1.9804 H         1 UNK         0.2990 
     95 H95        25.7614   26.7097    4.8878 H         1 UNK         0.0690 
     96 H96        25.0969   24.5826    6.0261 H         1 UNK         0.0788 
     97 H97        24.3323   24.0244    4.5375 H         1 UNK         0.0788 
     98 H98        23.7208   25.4472    5.3590 H         1 UNK         0.0788 
     99 H99        27.6789   25.8525    4.3366 H         1 UNK         0.2993 
    100 H100       29.1602   24.7977    2.9838 H         1 UNK         0.0949 
    101 H101       29.3264   24.0070    5.3656 H         1 UNK         0.0767 
    102 H102       29.1032   22.3455    4.8332 H         1 UNK         0.0767 
    103 H103       30.5419   23.2478    4.3529 H         1 UNK         0.0767 
    104 H104       29.6406   22.1468    2.3554 H         1 UNK         0.3013 
    105 H105       28.5393   29.7812    0.0823 H         1 UNK         0.3121 
    106 H106       28.8407   29.6870    3.0416 H         1 UNK         0.0774 
    107 H107       28.5593   32.1380    2.8873 H         1 UNK         0.0815 
    108 H108       28.5223   32.0617    1.1316 H         1 UNK         0.0815 
    109 H109       27.2276   31.3282    2.0804 H         1 UNK         0.0815 
    110 H110       30.7410   29.9441    0.1458 H         1 UNK         0.2987 
    111 H111       32.8082   30.5206   -0.4018 H         1 UNK         0.0949 
    112 H112       34.6704   29.9908    1.1461 H         1 UNK         0.0806 
    113 H113       33.4566   28.7375    1.2176 H         1 UNK         0.0806 
    114 H114       33.5625   29.9149    2.5170 H         1 UNK         0.0806 
    115 H115       34.5604   31.8864    1.9135 H         1 UNK         0.3010 
    116 H116       33.7901   34.6645    1.2842 H         1 UNK         0.0829 
    117 H117       36.1874   33.9779    1.1804 H         1 UNK         0.0813 
    118 H118       35.9297   35.2089    2.4033 H         1 UNK         0.0813 
    119 H119       36.1446   33.5319    2.8867 H         1 UNK         0.0813 
    120 H120       31.7488   33.5032    2.5876 H         1 UNK         0.3038 
    121 H121       30.3215   33.4964    4.2895 H         1 UNK         0.0769 
    122 H122       30.1888   35.4840    5.7621 H         1 UNK         0.0811 
    123 H123       30.5092   35.9814    4.1088 H         1 UNK         0.0811 
    124 H124       31.8093   35.9810    5.2996 H         1 UNK         0.0811 
    125 H125       32.0099   31.5711    4.5457 H         1 UNK         0.3204 
    126 H126       32.8404   31.4088    7.4247 H         1 UNK         0.0748 
    127 H127       34.9294   30.2763    6.6831 H         1 UNK         0.0771 
    128 H128       34.4978   30.5313    4.9967 H         1 UNK         0.0771 
    129 H129       34.8506   31.9091    6.0382 H         1 UNK         0.0771 
    130 H130       31.6710   29.7295    4.5000 H         1 UNK         0.2980 
    131 H131       31.4904   27.1605    5.9654 H         1 UNK         0.0545 
    132 H132       27.9422   28.9350    5.9051 H         1 UNK         0.3459 
    133 H133       29.4486   29.8136    5.8228 H         1 UNK         0.3459 
    134 H134       30.9575   26.2000    3.7134 H         1 UNK         0.0616 
    135 H135       31.1419   27.7742    2.9947 H         1 UNK         0.0616 
    136 H136       34.3758   24.7692    3.5085 H         1 UNK         0.0634 
    137 H137       32.7600   24.5799    4.1429 H         1 UNK         0.0634 
@<TRIPOS>BOND
     1    1    2 1    
     2    1   72 1    
     3    1   73 1    
     4    1   74 1    
     5    2    3 2    
     6    2    4 am   BACKBONE|DICT|INTERRES
     7    4    5 1    
     8    4   75 1    
     9    5    6 1    
    10    5   35 1    
    11    5   76 1    
    12    6    7 1    
    13    6   77 1    
    14    6   78 1    
    15    7    8 1    
    16    8    9 1    
    17    8   79 1    
    18    8   80 1    
    19    9   10 ar   
    20    9   14 ar   
    21   10   11 ar   
    22   10   81 1    
    23   11   12 ar   
    24   11   71 1    
    25   12   13 ar   
    26   12   82 1    
    27   13   14 ar   
    28   13   15 1    
    29   14   83 1    
    30   15   16 1    
    31   15   84 1    
    32   15   85 1    
    33   16   17 1    
    34   17   18 1    
    35   17   86 1    
    36   17   87 1    
    37   18   19 1    
    38   18   37 1    
    39   18   88 1    
    40   19   20 am   BACKBONE|DICT|INTERRES
    41   19   89 1    
    42   20   21 2    
    43   20   22 1    
    44   22   23 1    
    45   22   24 1    
    46   22   90 1    
    47   23   91 1    
    48   23   92 1    
    49   23   93 1    
    50   24   25 am   BACKBONE|DICT|INTERRES
    51   24   94 1    
    52   25   26 2    
    53   25   27 1    
    54   27   28 1    
    55   27   29 1    
    56   27   95 1    
    57   28   96 1    
    58   28   97 1    
    59   28   98 1    
    60   29   30 am   BACKBONE|DICT|INTERRES
    61   29   99 1    
    62   30   31 2    
    63   30   32 1    
    64   32   33 1    
    65   32   34 1    
    66   32  100 1    
    67   33  101 1    
    68   33  102 1    
    69   33  103 1    
    70   34   35 am   BACKBONE|DICT|INTERRES
    71   34  104 1    
    72   35   36 2    
    73   37   38 2    
    74   37   39 am   BACKBONE|DICT|INTERRES
    75   39   40 1    
    76   39  105 1    
    77   40   41 1    
    78   40   42 1    
    79   40  106 1    
    80   41  107 1    
    81   41  108 1    
    82   41  109 1    
    83   42   43 2    
    84   42   44 am   BACKBONE|DICT|INTERRES
    85   44   45 1    
    86   44  110 1    
    87   45   46 1    
    88   45   47 1    
    89   45  111 1    
    90   46  112 1    
    91   46  113 1    
    92   46  114 1    
    93   47   48 2    
    94   47   49 am   BACKBONE|DICT|INTERRES
    95   49   50 1    
    96   49  115 1    
    97   50   51 1    
    98   50   52 1    
    99   50  116 1    
   100   51  117 1    
   101   51  118 1    
   102   51  119 1    
   103   52   53 2    
   104   52   54 am   BACKBONE|DICT|INTERRES
   105   54   55 1    
   106   54  120 1    
   107   55   56 1    
   108   55   57 1    
   109   55  121 1    
   110   56  122 1    
   111   56  123 1    
   112   56  124 1    
   113   57   58 2    
   114   57   59 am   BACKBONE|DICT|INTERRES
   115   59   60 1    
   116   59  125 1    
   117   60   61 1    
   118   60   62 1    
   119   60  126 1    
   120   61  127 1    
   121   61  128 1    
   122   61  129 1    
   123   62   63 2    
   124   62   64 am   BACKBONE|DICT|INTERRES
   125   64   65 1    
   126   64  130 1    
   127   65   66 1    
   128   65   69 1    
   129   65  131 1    
   130   66   67 am   BACKBONE|DICT|INTERRES
   131   66   68 2    
   132   67  132 1    
   133   67  133 1    
   134   69   70 1    
   135   69  134 1    
   136   69  135 1    
   137   70   71 1    
   138   71  136 1    
   139   71  137 1    
@<TRIPOS>SUBSTRUCTURE
     1 UNK         1 GROUP             0       ****    0 ROOT    
