@<TRIPOS>MOLECULE
3R136
137   139    1
SMALL
USER_CHARGES


@<TRIPOS>ATOM
      1 CA         28.6801   18.0160   -0.3960 C.3       0 UNK        -0.1979 
      2 C          28.6326   19.4637   -0.8620 C.2       0 UNK         0.4864 
      3 O          28.0758   19.7439   -1.9243 O.2       0 UNK        -0.5359 
      4 N          29.2176   20.3796   -0.0775 N.am      1 UNK        -0.4318 
      5 CA         29.2655   21.8225   -0.3472 C.3       1 UNK         0.0824 
      6 C6         30.2134   22.5521    0.6313 C.3       12 UNK        -0.0944 
      7 S7         31.9614   22.1473    0.3185 S.3       12 UNK        -0.2672 
      8 C8         32.7066   22.4830    1.9467 C.3       12 UNK         0.0333 
      9 C9         32.3279   23.8560    2.4880 C.ar      12 UNK        -0.0807 
     10 C10        32.7729   25.0169    1.8490 C.ar      12 UNK        -0.0894 
     11 C11        32.4266   26.2754    2.3475 C.ar      12 UNK        -0.0804 
     12 C12        31.6448   26.3676    3.5024 C.ar      12 UNK        -0.0824 
     13 C13        31.1723   25.2152    4.1408 C.ar      12 UNK        -0.0762 
     14 C14        31.5249   23.9631    3.6279 C.ar      12 UNK        -0.0782 
     15 C15        30.3101   25.2868    5.4006 C.3       12 UNK         0.0230 
     16 S16        29.1042   26.6577    5.4362 S.3       12 UNK        -0.2608 
     17 C17        28.0861   26.3571    3.9454 C.3       12 UNK        -0.0989 
     18 CA         28.2736   27.4752    2.8852 C.3       5 UNK         0.0716 
     19 N          28.1214   26.9728    1.5175 N.am      5 UNK        -0.4135 
     20 C          28.6637   27.5505    0.4329 C.2       4 UNK         0.5031 
     21 O          29.4013   28.5351    0.4872 O.2       4 UNK        -0.5229 
     22 CA         28.2662   26.9927   -0.9489 C.3       4 UNK         0.0329 
     23 CB         29.3766   26.0993   -1.5199 C.3       4 UNK        -0.2001 
     24 N          26.9880   26.2691   -0.9474 N.am      4 UNK        -0.4303 
     25 C          25.8097   26.8442   -0.6561 C.2       3 UNK         0.5044 
     26 O          25.6916   28.0467   -0.4249 O.2       3 UNK        -0.5152 
     27 CA         24.5620   25.9501   -0.5417 C.3       3 UNK         0.0319 
     28 CB         23.7262   26.0343   -1.8285 C.3       3 UNK        -0.2001 
     29 N          24.8306   24.5432   -0.2352 N.am      3 UNK        -0.4354 
     30 C          25.5030   24.0691    0.8238 C.2       2 UNK         0.4964 
     31 O          26.0213   24.7813    1.6867 O.2       2 UNK        -0.5047 
     32 CA         25.6701   22.5379    0.9078 C.3       2 UNK         0.0288 
     33 CB         24.7282   21.7496   -0.0316 C.3       2 UNK        -0.2113 
     34 N          27.0567   22.1112    0.6833 N.am      2 UNK        -0.4145 
     35 C          27.8694   22.4745   -0.3238 C.2       1 UNK         0.5006 
     36 O          27.5661   23.2779   -1.2092 O.2       1 UNK        -0.5103 
     37 C          27.4210   28.7365    3.1740 C.2       5 UNK         0.5055 
     38 O          27.5401   29.2975    4.2631 O.2       5 UNK        -0.5220 
     39 N          26.6302   29.2335    2.2053 N.am      6 UNK        -0.4450 
     40 CA         25.9894   30.5563    2.2744 C.3       6 UNK         0.0367 
     41 CB         25.0229   30.7334    1.0937 C.3       6 UNK        -0.1929 
     42 C          27.0030   31.7196    2.3175 C.2       6 UNK         0.5070 
     43 O          26.6700   32.7934    2.8180 O.2       6 UNK        -0.5237 
     44 N          28.2313   31.4733    1.8382 N.am      7 UNK        -0.4739 
     45 CA         29.3892   32.3616    1.9699 C.3       7 UNK         0.0276 
     46 CB         30.3687   32.0498    0.8248 C.3       7 UNK        -0.1927 
     47 C          30.0941   32.2533    3.3413 C.2       7 UNK         0.5013 
     48 O          31.1132   32.9183    3.5315 O.2       7 UNK        -0.5193 
     49 N          29.5598   31.4228    4.2533 N.am      8 UNK        -0.4253 
     50 CA         30.0973   31.0163    5.5581 C.3       8 UNK         0.0242 
     51 CB         30.3967   32.2352    6.4587 C.3       8 UNK        -0.2000 
     52 C          31.3095   30.0791    5.4213 C.2       8 UNK         0.4948 
     53 O          31.7961   29.8406    4.3154 O.2       8 UNK        -0.5275 
     54 N          31.7949   29.5659    6.5605 N.am      9 UNK        -0.4246 
     55 CA         32.9404   28.6490    6.6512 C.3       9 UNK         0.0261 
     56 CB         33.0518   28.1245    8.0920 C.3       9 UNK        -0.1959 
     57 C          34.2829   29.2499    6.1849 C.2       9 UNK         0.5033 
     58 O          35.2103   28.4941    5.8939 O.2       9 UNK        -0.5390 
     59 N          34.3644   30.5862    6.1126 N.am      10 UNK        -0.4215 
     60 CA         35.4708   31.3271    5.5018 C.3       10 UNK         0.0240 
     61 CB         35.4070   32.7920    5.9649 C.3       10 UNK        -0.1982 
     62 C          35.4721   31.2504    3.9612 C.2       10 UNK         0.4970 
     63 O          36.5278   31.4545    3.3595 O.2       10 UNK        -0.4916 
     64 N          34.3087   30.9575    3.3627 N.am      11 UNK        -0.4279 
     65 CA         34.0581   30.8214    1.9209 C.3       11 UNK         0.1003 
     66 C          34.2593   32.1400    1.1131 C.2       11 UNK         0.5709 
     67 N          34.1946   32.0833   -0.2113 N.am      11 UNK        -0.7358 
     68 O          34.4296   33.2269    1.6628 O.2       11 UNK        -0.4999 
     69 C69        34.7787   29.5905    1.2903 C.3       12 UNK        -0.0954 
     70 S70        34.5333   28.0409    2.2231 S.3       12 UNK        -0.2268 
     71 C71        32.8905   27.5358    1.6366 C.3       12 UNK         0.0203 
     72 H72        27.6691   17.6307   -0.2661 H         1 UNK         0.0888 
     73 H73        29.1874   17.3997   -1.1377 H         1 UNK         0.0888 
     74 H74        29.2080   17.9089    0.5515 H         1 UNK         0.0888 
     75 H75        29.6877   20.0781    0.7640 H         1 UNK         0.3017 
     76 H76        29.6510   21.9540   -1.3610 H         1 UNK         0.0873 
     77 H77        29.9597   22.3035    1.6635 H         1 UNK         0.0745 
     78 H78        30.1167   23.6353    0.5527 H         1 UNK         0.0745 
     79 H79        33.7920   22.4165    1.8604 H         1 UNK         0.0705 
     80 H80        32.4061   21.6955    2.6397 H         1 UNK         0.0705 
     81 H81        33.3848   24.9391    0.9606 H         1 UNK         0.1334 
     82 H82        31.3980   27.3422    3.8973 H         1 UNK         0.1417 
     83 H83        31.1764   23.0659    4.1215 H         1 UNK         0.1562 
     84 H84        30.9702   25.3872    6.2630 H         1 UNK         0.0748 
     85 H85        29.7622   24.3534    5.5395 H         1 UNK         0.0748 
     86 H86        27.0382   26.2545    4.2342 H         1 UNK         0.0940 
     87 H87        28.3683   25.3886    3.5287 H         1 UNK         0.0940 
     88 H88        29.3061   27.8206    2.9581 H         1 UNK         0.0703 
     89 H89        27.4884   26.1879    1.3987 H         1 UNK         0.3081 
     90 H90        28.1542   27.8503   -1.6159 H         1 UNK         0.0719 
     91 H91        29.1409   25.7703   -2.5321 H         1 UNK         0.0809 
     92 H92        30.3258   26.6355   -1.5646 H         1 UNK         0.0809 
     93 H93        29.5330   25.2133   -0.9092 H         1 UNK         0.0809 
     94 H94        27.0228   25.2673   -1.1118 H         1 UNK         0.2990 
     95 H95        23.9628   26.3472    0.2803 H         1 UNK         0.0690 
     96 H96        24.2598   25.6171   -2.6836 H         1 UNK         0.0788 
     97 H97        23.4830   27.0703   -2.0698 H         1 UNK         0.0788 
     98 H98        22.7821   25.4987   -1.7260 H         1 UNK         0.0788 
     99 H99        24.4857   23.8687   -0.9030 H         1 UNK         0.2993 
    100 H100       25.4186   22.2660    1.9342 H         1 UNK         0.0949 
    101 H101       24.9648   21.9099   -1.0844 H         1 UNK         0.0767 
    102 H102       24.8032   20.6782    0.1561 H         1 UNK         0.0767 
    103 H103       23.6846   22.0256    0.1268 H         1 UNK         0.0767 
    104 H104       27.4254   21.4651    1.3665 H         1 UNK         0.3013 
    105 H105       26.5302   28.7323    1.3283 H         1 UNK         0.3121 
    106 H106       25.4078   30.5968    3.1979 H         1 UNK         0.0774 
    107 H107       24.5009   31.6892    1.1567 H         1 UNK         0.0815 
    108 H108       25.5467   30.7113    0.1373 H         1 UNK         0.0815 
    109 H109       24.2638   29.9511    1.0799 H         1 UNK         0.0815 
    110 H110       28.4151   30.5632    1.4347 H         1 UNK         0.2987 
    111 H111       29.0559   33.3961    1.8625 H         1 UNK         0.0949 
    112 H112       30.7507   31.0302    0.8900 H         1 UNK         0.0806 
    113 H113       29.8922   32.1667   -0.1486 H         1 UNK         0.0806 
    114 H114       31.2255   32.7244    0.8453 H         1 UNK         0.0806 
    115 H115       28.7357   30.8993    3.9790 H         1 UNK         0.3010 
    116 H116       29.3058   30.4336    6.0321 H         1 UNK         0.0829 
    117 H117       30.5793   31.9320    7.4899 H         1 UNK         0.0813 
    118 H118       31.2762   32.7864    6.1247 H         1 UNK         0.0813 
    119 H119       29.5559   32.9288    6.4762 H         1 UNK         0.0813 
    120 H120       31.3370   29.7975    7.4307 H         1 UNK         0.3038 
    121 H121       32.7318   27.7999    5.9969 H         1 UNK         0.0769 
    122 H122       33.2348   28.9311    8.8028 H         1 UNK         0.0811 
    123 H123       33.8747   27.4143    8.1862 H         1 UNK         0.0811 
    124 H124       32.1433   27.6044    8.3965 H         1 UNK         0.0811 
    125 H125       33.5598   31.1238    6.3985 H         1 UNK         0.3204 
    126 H126       36.4103   30.8959    5.8540 H         1 UNK         0.0748 
    127 H127       36.2379   33.3669    5.5533 H         1 UNK         0.0771 
    128 H128       34.4847   33.2776    5.6422 H         1 UNK         0.0771 
    129 H129       35.4678   32.8695    7.0506 H         1 UNK         0.0771 
    130 H130       33.4929   30.7688    3.9353 H         1 UNK         0.2980 
    131 H131       32.9865   30.6339    1.8601 H         1 UNK         0.0545 
    132 H132       34.3085   32.9335   -0.7404 H         1 UNK         0.3459 
    133 H133       34.0381   31.2123   -0.6926 H         1 UNK         0.3459 
    134 H134       34.4414   29.4218    0.2669 H         1 UNK         0.0616 
    135 H135       35.8524   29.7747    1.2288 H         1 UNK         0.0616 
    136 H136       32.9208   27.3702    0.5586 H         1 UNK         0.0634 
    137 H137       32.1763   28.3433    1.8074 H         1 UNK         0.0634 
@<TRIPOS>BOND
     1    1    2 1    
     2    1   72 1    
     3    1   73 1    
     4    1   74 1    
     5    2    3 2    
     6    2    4 am   BACKBONE|DICT|INTERRES
     7    4    5 1    
     8    4   75 1    
     9    5    6 1    
    10    5   35 1    
    11    5   76 1    
    12    6    7 1    
    13    6   77 1    
    14    6   78 1    
    15    7    8 1    
    16    8    9 1    
    17    8   79 1    
    18    8   80 1    
    19    9   10 ar   
    20    9   14 ar   
    21   10   11 ar   
    22   10   81 1    
    23   11   12 ar   
    24   11   71 1    
    25   12   13 ar   
    26   12   82 1    
    27   13   14 ar   
    28   13   15 1    
    29   14   83 1    
    30   15   16 1    
    31   15   84 1    
    32   15   85 1    
    33   16   17 1    
    34   17   18 1    
    35   17   86 1    
    36   17   87 1    
    37   18   19 1    
    38   18   37 1    
    39   18   88 1    
    40   19   20 am   BACKBONE|DICT|INTERRES
    41   19   89 1    
    42   20   21 2    
    43   20   22 1    
    44   22   23 1    
    45   22   24 1    
    46   22   90 1    
    47   23   91 1    
    48   23   92 1    
    49   23   93 1    
    50   24   25 am   BACKBONE|DICT|INTERRES
    51   24   94 1    
    52   25   26 2    
    53   25   27 1    
    54   27   28 1    
    55   27   29 1    
    56   27   95 1    
    57   28   96 1    
    58   28   97 1    
    59   28   98 1    
    60   29   30 am   BACKBONE|DICT|INTERRES
    61   29   99 1    
    62   30   31 2    
    63   30   32 1    
    64   32   33 1    
    65   32   34 1    
    66   32  100 1    
    67   33  101 1    
    68   33  102 1    
    69   33  103 1    
    70   34   35 am   BACKBONE|DICT|INTERRES
    71   34  104 1    
    72   35   36 2    
    73   37   38 2    
    74   37   39 am   BACKBONE|DICT|INTERRES
    75   39   40 1    
    76   39  105 1    
    77   40   41 1    
    78   40   42 1    
    79   40  106 1    
    80   41  107 1    
    81   41  108 1    
    82   41  109 1    
    83   42   43 2    
    84   42   44 am   BACKBONE|DICT|INTERRES
    85   44   45 1    
    86   44  110 1    
    87   45   46 1    
    88   45   47 1    
    89   45  111 1    
    90   46  112 1    
    91   46  113 1    
    92   46  114 1    
    93   47   48 2    
    94   47   49 am   BACKBONE|DICT|INTERRES
    95   49   50 1    
    96   49  115 1    
    97   50   51 1    
    98   50   52 1    
    99   50  116 1    
   100   51  117 1    
   101   51  118 1    
   102   51  119 1    
   103   52   53 2    
   104   52   54 am   BACKBONE|DICT|INTERRES
   105   54   55 1    
   106   54  120 1    
   107   55   56 1    
   108   55   57 1    
   109   55  121 1    
   110   56  122 1    
   111   56  123 1    
   112   56  124 1    
   113   57   58 2    
   114   57   59 am   BACKBONE|DICT|INTERRES
   115   59   60 1    
   116   59  125 1    
   117   60   61 1    
   118   60   62 1    
   119   60  126 1    
   120   61  127 1    
   121   61  128 1    
   122   61  129 1    
   123   62   63 2    
   124   62   64 am   BACKBONE|DICT|INTERRES
   125   64   65 1    
   126   64  130 1    
   127   65   66 1    
   128   65   69 1    
   129   65  131 1    
   130   66   67 am   BACKBONE|DICT|INTERRES
   131   66   68 2    
   132   67  132 1    
   133   67  133 1    
   134   69   70 1    
   135   69  134 1    
   136   69  135 1    
   137   70   71 1    
   138   71  136 1    
   139   71  137 1    
@<TRIPOS>SUBSTRUCTURE
     1 UNK         1 GROUP             0       ****    0 ROOT    
