@<TRIPOS>MOLECULE
3R136
137   139    1
SMALL
USER_CHARGES


@<TRIPOS>ATOM
      1 CA         28.9056   17.4588    3.2655 C.3       0 UNK        -0.1979 
      2 C          28.7018   18.5161    2.1901 C.2       0 UNK         0.4864 
      3 O          28.4402   18.1714    1.0367 O.2       0 UNK        -0.5359 
      4 N          28.8184   19.7961    2.5595 N.am      1 UNK        -0.4318 
      5 CA         28.6413   20.9492    1.6809 C.3       1 UNK         0.0824 
      6 C6         29.9850   21.3880    1.0354 C.3       12 UNK        -0.0944 
      7 S7         29.7866   22.1616   -0.6049 S.3       12 UNK        -0.2672 
      8 C8         29.5939   23.9284   -0.2166 C.3       12 UNK         0.0333 
      9 C9         30.8529   24.5609    0.3585 C.ar      12 UNK        -0.0807 
     10 C10        31.0134   24.6626    1.7431 C.ar      12 UNK        -0.0894 
     11 C11        32.1347   25.2883    2.2901 C.ar      12 UNK        -0.0804 
     12 C12        33.0897   25.8447    1.4347 C.ar      12 UNK        -0.0824 
     13 C13        32.9365   25.7674    0.0469 C.ar      12 UNK        -0.0762 
     14 C14        31.8281   25.1004   -0.4872 C.ar      12 UNK        -0.0782 
     15 C15        33.9554   26.4417   -0.8649 C.3       12 UNK         0.0230 
     16 S16        33.2623   27.8565   -1.7933 S.3       12 UNK        -0.2608 
     17 C17        32.3178   28.7702   -0.5220 C.3       12 UNK        -0.0989 
     18 CA         30.7913   28.4707   -0.6413 C.3       5 UNK         0.0716 
     19 N          30.1974   27.9543    0.5950 N.am      5 UNK        -0.4135 
     20 C          29.9511   28.6154    1.7338 C.2       4 UNK         0.5031 
     21 O          30.2736   29.7869    1.9460 O.2       4 UNK        -0.5229 
     22 CA         29.1779   27.8166    2.8063 C.3       4 UNK         0.0329 
     23 CB         28.5951   28.7243    3.9090 C.3       4 UNK        -0.2001 
     24 N          28.1289   26.9447    2.2452 N.am      4 UNK        -0.4303 
     25 C          27.1050   27.3252    1.4635 C.2       3 UNK         0.5044 
     26 O          26.9291   28.4864    1.0940 O.2       3 UNK        -0.5152 
     27 CA         26.1360   26.2444    0.9459 C.3       3 UNK         0.0319 
     28 CB         26.2701   26.0972   -0.5798 C.3       3 UNK        -0.2001 
     29 N          26.2617   24.9185    1.5644 N.am      3 UNK        -0.4354 
     30 C          25.8792   24.6186    2.8139 C.2       2 UNK         0.4964 
     31 O          25.5089   25.4610    3.6314 O.2       2 UNK        -0.5047 
     32 CA         25.8668   23.1335    3.2188 C.3       2 UNK         0.0288 
     33 CB         24.4227   22.6032    3.2280 C.3       2 UNK        -0.2113 
     34 N          26.6799   22.2645    2.3581 N.am      2 UNK        -0.4145 
     35 C          27.9873   22.0398    2.5454 C.2       1 UNK         0.5006 
     36 O          28.6565   22.6079    3.4101 O.2       1 UNK        -0.5103 
     37 C          29.9407   29.5983   -1.2691 C.2       5 UNK         0.5055 
     38 O          30.4591   30.6606   -1.6127 O.2       5 UNK        -0.5220 
     39 N          28.6322   29.3262   -1.4002 N.am      6 UNK        -0.4450 
     40 CA         27.5808   30.2115   -1.9159 C.3       6 UNK         0.0367 
     41 CB         27.8172   30.5624   -3.4010 C.3       6 UNK        -0.1929 
     42 C          27.3823   31.4462   -1.0186 C.2       6 UNK         0.5070 
     43 O          27.4143   32.5796   -1.5011 O.2       6 UNK        -0.5237 
     44 N          27.1845   31.1827    0.2815 N.am      7 UNK        -0.4739 
     45 CA         26.9720   32.1487    1.3655 C.3       7 UNK         0.0276 
     46 CB         25.6300   32.8902    1.1857 C.3       7 UNK        -0.1927 
     47 C          28.1627   33.1038    1.5846 C.2       7 UNK         0.5013 
     48 O          27.9621   34.2578    1.9676 O.2       7 UNK        -0.5193 
     49 N          29.3864   32.5997    1.3721 N.am      8 UNK        -0.4253 
     50 CA         30.6381   33.3174    1.6322 C.3       8 UNK         0.0242 
     51 CB         31.7448   32.7344    0.7378 C.3       8 UNK        -0.2000 
     52 C          31.0611   33.2627    3.1119 C.2       8 UNK         0.4948 
     53 O          32.0108   33.9533    3.4834 O.2       8 UNK        -0.5275 
     54 N          30.3728   32.4342    3.9145 N.am      9 UNK        -0.4246 
     55 CA         30.6495   32.1135    5.3205 C.3       9 UNK         0.0261 
     56 CB         30.5186   33.3592    6.2237 C.3       9 UNK        -0.1959 
     57 C          31.9886   31.3707    5.4933 C.2       9 UNK         0.5033 
     58 O          32.6995   31.5893    6.4770 O.2       9 UNK        -0.5390 
     59 N          32.3049   30.5028    4.5226 N.am      10 UNK        -0.4215 
     60 CA         33.4807   29.6343    4.5219 C.3       10 UNK         0.0240 
     61 CB         33.6710   29.0877    3.0979 C.3       10 UNK        -0.1982 
     62 C          33.3557   28.4828    5.5372 C.2       10 UNK         0.4970 
     63 O          32.2678   28.2298    6.0606 O.2       10 UNK        -0.4916 
     64 N          34.4754   27.7810    5.7529 N.am      11 UNK        -0.4279 
     65 CA         34.6139   26.5956    6.6217 C.3       11 UNK         0.1003 
     66 C          34.5181   26.8902    8.1508 C.2       11 UNK         0.5709 
     67 N          34.5533   28.1425    8.5911 N.am      11 UNK        -0.7358 
     68 O          34.4477   25.9674    8.9595 O.2       11 UNK        -0.4999 
     69 C69        33.7176   25.3925    6.1947 C.3       12 UNK        -0.0954 
     70 S70        33.8966   24.9253    4.4377 S.3       12 UNK        -0.2268 
     71 C71        32.2626   25.4193    3.8020 C.3       12 UNK         0.0203 
     72 H72        29.7282   16.7988    2.9913 H         1 UNK         0.0888 
     73 H73        29.1353   17.9013    4.2346 H         1 UNK         0.0888 
     74 H74        28.0051   16.8548    3.3735 H         1 UNK         0.0888 
     75 H75        29.0110   20.0292    3.5253 H         1 UNK         0.3017 
     76 H76        27.9413   20.6779    0.8870 H         1 UNK         0.0873 
     77 H77        30.5853   22.0088    1.6995 H         1 UNK         0.0745 
     78 H78        30.6021   20.5058    0.8573 H         1 UNK         0.0745 
     79 H79        28.7584   24.0585    0.4700 H         1 UNK         0.0705 
     80 H80        29.3143   24.4492   -1.1334 H         1 UNK         0.0705 
     81 H81        30.2566   24.2631    2.4014 H         1 UNK         0.1334 
     82 H82        33.9456   26.3554    1.8530 H         1 UNK         0.1417 
     83 H83        31.7060   25.0404   -1.5605 H         1 UNK         0.1562 
     84 H84        34.3443   25.7093   -1.5735 H         1 UNK         0.0748 
     85 H85        34.8134   26.7929   -0.2894 H         1 UNK         0.0748 
     86 H86        32.5520   29.8316   -0.6099 H         1 UNK         0.0940 
     87 H87        32.6962   28.4917    0.4594 H         1 UNK         0.0940 
     88 H88        30.6646   27.6414   -1.3387 H         1 UNK         0.0703 
     89 H89        29.9225   26.9842    0.5623 H         1 UNK         0.3081 
     90 H90        29.9055   27.1573    3.2785 H         1 UNK         0.0719 
     91 H91        28.0510   28.1427    4.6531 H         1 UNK         0.0809 
     92 H92        27.9113   29.4693    3.5014 H         1 UNK         0.0809 
     93 H93        29.3882   29.2558    4.4351 H         1 UNK         0.0809 
     94 H94        28.1764   25.9696    2.5036 H         1 UNK         0.2990 
     95 H95        25.1284   26.6098    1.1560 H         1 UNK         0.0690 
     96 H96        25.5414   25.3896   -0.9759 H         1 UNK         0.0788 
     97 H97        27.2627   25.7557   -0.8715 H         1 UNK         0.0788 
     98 H98        26.0920   27.0486   -1.0832 H         1 UNK         0.0788 
     99 H99        26.5265   24.1579    0.9570 H         1 UNK         0.2993 
    100 H100       26.2481   23.0791    4.2414 H         1 UNK         0.0949 
    101 H101       23.9748   22.6293    2.2337 H         1 UNK         0.0767 
    102 H102       24.3800   21.5754    3.5894 H         1 UNK         0.0767 
    103 H103       23.7898   23.2008    3.8860 H         1 UNK         0.0767 
    104 H104       26.1868   21.7401    1.6487 H         1 UNK         0.3013 
    105 H105       28.3008   28.4472   -1.0305 H         1 UNK         0.3121 
    106 H106       26.6495   29.6453   -1.8611 H         1 UNK         0.0774 
    107 H107       26.9739   31.1233   -3.8055 H         1 UNK         0.0815 
    108 H108       28.7077   31.1761   -3.5397 H         1 UNK         0.0815 
    109 H109       27.9301   29.6644   -4.0082 H         1 UNK         0.0815 
    110 H110       27.1614   30.2028    0.5658 H         1 UNK         0.2987 
    111 H111       26.8951   31.5573    2.2792 H         1 UNK         0.0949 
    112 H112       25.6475   33.5565    0.3227 H         1 UNK         0.0806 
    113 H113       24.8048   32.1905    1.0535 H         1 UNK         0.0806 
    114 H114       25.3984   33.4992    2.0605 H         1 UNK         0.0806 
    115 H115       29.4761   31.6297    1.0909 H         1 UNK         0.3010 
    116 H116       30.5069   34.3691    1.3688 H         1 UNK         0.0829 
    117 H117       31.4865   32.8213   -0.3175 H         1 UNK         0.0813 
    118 H118       32.6878   33.2630    0.8831 H         1 UNK         0.0813 
    119 H119       31.9252   31.6810    0.9538 H         1 UNK         0.0813 
    120 H120       29.6374   31.8956    3.4790 H         1 UNK         0.3038 
    121 H121       29.8756   31.4094    5.6292 H         1 UNK         0.0769 
    122 H122       31.3123   34.0831    6.0376 H         1 UNK         0.0811 
    123 H123       29.5632   33.8612    6.0720 H         1 UNK         0.0811 
    124 H124       30.5755   33.0831    7.2773 H         1 UNK         0.0811 
    125 H125       31.6551   30.3827    3.7563 H         1 UNK         0.3204 
    126 H126       34.3521   30.2356    4.7896 H         1 UNK         0.0748 
    127 H127       34.5782   28.4881    3.0171 H         1 UNK         0.0771 
    128 H128       32.8328   28.4568    2.8036 H         1 UNK         0.0771 
    129 H129       33.7542   29.8954    2.3700 H         1 UNK         0.0771 
    130 H130       35.3225   28.0659    5.2832 H         1 UNK         0.2980 
    131 H131       35.6467   26.2754    6.4815 H         1 UNK         0.0545 
    132 H132       34.6098   28.9121    7.9437 H         1 UNK         0.3459 
    133 H133       34.5034   28.3178    9.5822 H         1 UNK         0.3459 
    134 H134       33.9742   24.5085    6.7809 H         1 UNK         0.0616 
    135 H135       32.6695   25.5981    6.4172 H         1 UNK         0.0616 
    136 H136       32.0640   26.4543    4.0700 H         1 UNK         0.0634 
    137 H137       31.5035   24.8184    4.3057 H         1 UNK         0.0634 
@<TRIPOS>BOND
     1    1    2 1    
     2    1   72 1    
     3    1   73 1    
     4    1   74 1    
     5    2    3 2    
     6    2    4 am   BACKBONE|DICT|INTERRES
     7    4    5 1    
     8    4   75 1    
     9    5    6 1    
    10    5   35 1    
    11    5   76 1    
    12    6    7 1    
    13    6   77 1    
    14    6   78 1    
    15    7    8 1    
    16    8    9 1    
    17    8   79 1    
    18    8   80 1    
    19    9   10 ar   
    20    9   14 ar   
    21   10   11 ar   
    22   10   81 1    
    23   11   12 ar   
    24   11   71 1    
    25   12   13 ar   
    26   12   82 1    
    27   13   14 ar   
    28   13   15 1    
    29   14   83 1    
    30   15   16 1    
    31   15   84 1    
    32   15   85 1    
    33   16   17 1    
    34   17   18 1    
    35   17   86 1    
    36   17   87 1    
    37   18   19 1    
    38   18   37 1    
    39   18   88 1    
    40   19   20 am   BACKBONE|DICT|INTERRES
    41   19   89 1    
    42   20   21 2    
    43   20   22 1    
    44   22   23 1    
    45   22   24 1    
    46   22   90 1    
    47   23   91 1    
    48   23   92 1    
    49   23   93 1    
    50   24   25 am   BACKBONE|DICT|INTERRES
    51   24   94 1    
    52   25   26 2    
    53   25   27 1    
    54   27   28 1    
    55   27   29 1    
    56   27   95 1    
    57   28   96 1    
    58   28   97 1    
    59   28   98 1    
    60   29   30 am   BACKBONE|DICT|INTERRES
    61   29   99 1    
    62   30   31 2    
    63   30   32 1    
    64   32   33 1    
    65   32   34 1    
    66   32  100 1    
    67   33  101 1    
    68   33  102 1    
    69   33  103 1    
    70   34   35 am   BACKBONE|DICT|INTERRES
    71   34  104 1    
    72   35   36 2    
    73   37   38 2    
    74   37   39 am   BACKBONE|DICT|INTERRES
    75   39   40 1    
    76   39  105 1    
    77   40   41 1    
    78   40   42 1    
    79   40  106 1    
    80   41  107 1    
    81   41  108 1    
    82   41  109 1    
    83   42   43 2    
    84   42   44 am   BACKBONE|DICT|INTERRES
    85   44   45 1    
    86   44  110 1    
    87   45   46 1    
    88   45   47 1    
    89   45  111 1    
    90   46  112 1    
    91   46  113 1    
    92   46  114 1    
    93   47   48 2    
    94   47   49 am   BACKBONE|DICT|INTERRES
    95   49   50 1    
    96   49  115 1    
    97   50   51 1    
    98   50   52 1    
    99   50  116 1    
   100   51  117 1    
   101   51  118 1    
   102   51  119 1    
   103   52   53 2    
   104   52   54 am   BACKBONE|DICT|INTERRES
   105   54   55 1    
   106   54  120 1    
   107   55   56 1    
   108   55   57 1    
   109   55  121 1    
   110   56  122 1    
   111   56  123 1    
   112   56  124 1    
   113   57   58 2    
   114   57   59 am   BACKBONE|DICT|INTERRES
   115   59   60 1    
   116   59  125 1    
   117   60   61 1    
   118   60   62 1    
   119   60  126 1    
   120   61  127 1    
   121   61  128 1    
   122   61  129 1    
   123   62   63 2    
   124   62   64 am   BACKBONE|DICT|INTERRES
   125   64   65 1    
   126   64  130 1    
   127   65   66 1    
   128   65   69 1    
   129   65  131 1    
   130   66   67 am   BACKBONE|DICT|INTERRES
   131   66   68 2    
   132   67  132 1    
   133   67  133 1    
   134   69   70 1    
   135   69  134 1    
   136   69  135 1    
   137   70   71 1    
   138   71  136 1    
   139   71  137 1    
@<TRIPOS>SUBSTRUCTURE
     1 UNK         1 GROUP             0       ****    0 ROOT    
