@<TRIPOS>MOLECULE
3R136
137   139    1
SMALL
USER_CHARGES


@<TRIPOS>ATOM
      1 CA         34.0798   20.4886   -2.2721 C.3       0 UNK        -0.1979 
      2 C          33.2604   21.2934   -1.2738 C.2       0 UNK         0.4864 
      3 O          33.8282   22.0547   -0.4890 O.2       0 UNK        -0.5359 
      4 N          31.9315   21.1257   -1.2909 N.am      1 UNK        -0.4318 
      5 CA         30.9881   21.8669   -0.4508 C.3       1 UNK         0.0824 
      6 C6         29.6195   21.1412   -0.3898 C.3       12 UNK        -0.0944 
      7 S7         28.4051   21.8864    0.7539 S.3       12 UNK        -0.2672 
      8 C8         29.0048   21.3292    2.3795 C.3       12 UNK         0.0333 
      9 C9         29.4069   22.5176    3.2403 C.ar      12 UNK        -0.0807 
     10 C10        30.7460   22.9136    3.3279 C.ar      12 UNK        -0.0894 
     11 C11        31.1080   24.0152    4.1085 C.ar      12 UNK        -0.0804 
     12 C12        30.1264   24.7010    4.8285 C.ar      12 UNK        -0.0824 
     13 C13        28.7851   24.3139    4.7528 C.ar      12 UNK        -0.0762 
     14 C14        28.4310   23.2233    3.9532 C.ar      12 UNK        -0.0782 
     15 C15        27.7234   25.0749    5.5386 C.3       12 UNK         0.0230 
     16 S16        26.9080   26.3642    4.5398 S.3       12 UNK        -0.2608 
     17 C17        28.3368   27.4103    4.1010 C.3       12 UNK        -0.0989 
     18 CA         28.0155   28.6880    3.2928 C.3       5 UNK         0.0716 
     19 N          27.0749   28.4626    2.1993 N.am      5 UNK        -0.4135 
     20 C          26.9050   29.2964    1.1672 C.2       4 UNK         0.5031 
     21 O          27.5617   30.3295    1.0106 O.2       4 UNK        -0.5229 
     22 CA         25.8694   28.8668    0.1150 C.3       4 UNK         0.0329 
     23 CB         25.6830   29.9120   -0.9999 C.3       4 UNK        -0.2001 
     24 N          26.2871   27.6008   -0.4845 N.am      4 UNK        -0.4303 
     25 C          25.9983   26.3842   -0.0103 C.2       3 UNK         0.5044 
     26 O          25.2550   26.1859    0.9508 O.2       3 UNK        -0.5152 
     27 CA         26.6950   25.1931   -0.6886 C.3       3 UNK         0.0319 
     28 CB         26.4249   25.1378   -2.2063 C.3       3 UNK        -0.2001 
     29 N          28.1311   25.1285   -0.3889 N.am      3 UNK        -0.4354 
     30 C          29.0992   26.0000   -0.7180 C.2       2 UNK         0.4964 
     31 O          28.9144   27.0222   -1.3797 O.2       2 UNK        -0.5047 
     32 CA         30.5228   25.6846   -0.2225 C.3       2 UNK         0.0288 
     33 CB         30.8286   26.4587    1.0700 C.3       2 UNK        -0.2113 
     34 N          30.7528   24.2587    0.0200 N.am      2 UNK        -0.4145 
     35 C          30.8626   23.3267   -0.9366 C.2       1 UNK         0.5006 
     36 O          30.8379   23.5732   -2.1455 O.2       1 UNK        -0.5103 
     37 C          27.5859   29.8687    4.1823 C.2       5 UNK         0.5055 
     38 O          26.3915   30.0615    4.4229 O.2       5 UNK        -0.5220 
     39 N          28.5895   30.6407    4.6218 N.am      6 UNK        -0.4450 
     40 CA         28.4935   31.9301    5.3158 C.3       6 UNK         0.0367 
     41 CB         27.7307   31.8127    6.6528 C.3       6 UNK        -0.1929 
     42 C          27.9597   33.0561    4.4057 C.2       6 UNK         0.5070 
     43 O          27.4319   34.0499    4.9074 O.2       6 UNK        -0.5237 
     44 N          28.1301   32.8949    3.0871 N.am      7 UNK        -0.4739 
     45 CA         27.7787   33.8725    2.0615 C.3       7 UNK         0.0276 
     46 CB         26.3395   33.6440    1.5631 C.3       7 UNK        -0.1927 
     47 C          28.8065   33.8182    0.9261 C.2       7 UNK         0.5013 
     48 O          29.5080   34.8057    0.7038 O.2       7 UNK        -0.5193 
     49 N          28.8968   32.6686    0.2425 N.am      8 UNK        -0.4253 
     50 CA         29.8432   32.4402   -0.8533 C.3       8 UNK         0.0242 
     51 CB         29.2852   31.3622   -1.7969 C.3       8 UNK        -0.2000 
     52 C          31.2389   32.0378   -0.3521 C.2       8 UNK         0.4948 
     53 O          32.2348   32.4284   -0.9626 O.2       8 UNK        -0.5275 
     54 N          31.2863   31.2655    0.7387 N.am      9 UNK        -0.4246 
     55 CA         32.4872   30.7380    1.3818 C.3       9 UNK         0.0261 
     56 CB         33.1098   29.6193    0.5179 C.3       9 UNK        -0.1959 
     57 C          32.1049   30.2407    2.7835 C.2       9 UNK         0.5033 
     58 O          30.9458   30.3756    3.1852 O.2       9 UNK        -0.5390 
     59 N          33.0712   29.6699    3.5057 N.am      10 UNK        -0.4215 
     60 CA         32.9022   29.0494    4.8167 C.3       10 UNK         0.0240 
     61 CB         32.8468   30.1298    5.9148 C.3       10 UNK        -0.1982 
     62 C          34.0631   28.0712    5.0413 C.2       10 UNK         0.4970 
     63 O          35.0380   28.0972    4.2842 O.2       10 UNK        -0.4916 
     64 N          33.9413   27.2360    6.0753 N.am      11 UNK        -0.4279 
     65 CA         34.9453   26.2501    6.4928 C.3       11 UNK         0.1003 
     66 C          34.8746   25.9900    8.0220 C.2       11 UNK         0.5709 
     67 N          35.8500   25.2853    8.5796 N.am      11 UNK        -0.7358 
     68 O          33.9492   26.4217    8.7094 O.2       11 UNK        -0.4999 
     69 C69        34.9042   24.9524    5.6338 C.3       12 UNK        -0.0954 
     70 S70        33.3310   24.0299    5.7437 S.3       12 UNK        -0.2268 
     71 C71        32.5527   24.4850    4.1664 C.3       12 UNK         0.0203 
     72 H72        33.4529   19.8478   -2.8920 H         1 UNK         0.0888 
     73 H73        34.6335   21.1589   -2.9290 H         1 UNK         0.0888 
     74 H74        34.7957   19.8568   -1.7472 H         1 UNK         0.0888 
     75 H75        31.5191   20.5123   -1.9794 H         1 UNK         0.3017 
     76 H76        31.4055   21.8781    0.5566 H         1 UNK         0.0873 
     77 H77        29.1656   21.1116   -1.3824 H         1 UNK         0.0745 
     78 H78        29.7617   20.0986   -0.1002 H         1 UNK         0.0745 
     79 H79        29.8415   20.6380    2.2677 H         1 UNK         0.0705 
     80 H80        28.2122   20.7657    2.8741 H         1 UNK         0.0705 
     81 H81        31.5092   22.3664    2.7928 H         1 UNK         0.1334 
     82 H82        30.4094   25.5449    5.4428 H         1 UNK         0.1417 
     83 H83        27.3936   22.9245    3.8838 H         1 UNK         0.1562 
     84 H84        28.1629   25.5324    6.4264 H         1 UNK         0.0748 
     85 H85        26.9655   24.3792    5.9018 H         1 UNK         0.0748 
     86 H86        29.0005   26.7978    3.4968 H         1 UNK         0.0940 
     87 H87        28.9023   27.6490    5.0041 H         1 UNK         0.0940 
     88 H88        28.9478   28.9753    2.8070 H         1 UNK         0.0703 
     89 H89        26.4863   27.6426    2.2749 H         1 UNK         0.3081 
     90 H90        24.9112   28.7427    0.6240 H         1 UNK         0.0719 
     91 H91        26.5985   30.0583   -1.5724 H         1 UNK         0.0809 
     92 H92        24.8999   29.6107   -1.6956 H         1 UNK         0.0809 
     93 H93        25.3949   30.8795   -0.5870 H         1 UNK         0.0809 
     94 H94        27.0247   27.6516   -1.1804 H         1 UNK         0.2990 
     95 H95        26.2621   24.2908   -0.2533 H         1 UNK         0.0690 
     96 H96        26.8378   24.2288   -2.6438 H         1 UNK         0.0788 
     97 H97        26.8548   25.9859   -2.7395 H         1 UNK         0.0788 
     98 H98        25.3533   25.1368   -2.4099 H         1 UNK         0.0788 
     99 H99        28.4042   24.3286    0.1668 H         1 UNK         0.2993 
    100 H100       31.2136   26.0215   -0.9988 H         1 UNK         0.0949 
    101 H101       30.5153   27.5015    0.9981 H         1 UNK         0.0767 
    102 H102       30.3133   26.0187    1.9214 H         1 UNK         0.0767 
    103 H103       31.8961   26.4514    1.2913 H         1 UNK         0.0767 
    104 H104       30.7703   23.9668    0.9866 H         1 UNK         0.3013 
    105 H105       29.5265   30.4187    4.2803 H         1 UNK         0.3121 
    106 H106       29.5209   32.2093    5.5544 H         1 UNK         0.0774 
    107 H107       27.8276   32.7284    7.2371 H         1 UNK         0.0815 
    108 H108       26.6650   31.6408    6.5006 H         1 UNK         0.0815 
    109 H109       28.1203   30.9977    7.2626 H         1 UNK         0.0815 
    110 H110       28.5794   32.0493    2.7641 H         1 UNK         0.2987 
    111 H111       27.8335   34.8769    2.4882 H         1 UNK         0.0949 
    112 H112       26.0904   34.3356    0.7573 H         1 UNK         0.0806 
    113 H113       26.1910   32.6326    1.1854 H         1 UNK         0.0806 
    114 H114       25.6176   33.8060    2.3636 H         1 UNK         0.0806 
    115 H115       28.2947   31.8847    0.4957 H         1 UNK         0.3010 
    116 H116       29.9504   33.3635   -1.4272 H         1 UNK         0.0829 
    117 H117       28.3282   31.6667   -2.2202 H         1 UNK         0.0813 
    118 H118       29.9651   31.1839   -2.6311 H         1 UNK         0.0813 
    119 H119       29.1413   30.4091   -1.2857 H         1 UNK         0.0813 
    120 H120       30.4280   31.0218    1.2166 H         1 UNK         0.3038 
    121 H121       33.2064   31.5503    1.5036 H         1 UNK         0.0769 
    122 H122       34.0001   29.1946    0.9821 H         1 UNK         0.0811 
    123 H123       33.4170   29.9951   -0.4579 H         1 UNK         0.0811 
    124 H124       32.4070   28.8048    0.3479 H         1 UNK         0.0811 
    125 H125       33.9982   29.5457    3.1152 H         1 UNK         0.3204 
    126 H126       31.9732   28.4748    4.8197 H         1 UNK         0.0748 
    127 H127       32.7204   29.6863    6.9031 H         1 UNK         0.0771 
    128 H128       33.7605   30.7251    5.9373 H         1 UNK         0.0771 
    129 H129       32.0094   30.8110    5.7621 H         1 UNK         0.0771 
    130 H130       33.1438   27.3003    6.6936 H         1 UNK         0.2980 
    131 H131       35.9224   26.7127    6.3391 H         1 UNK         0.0545 
    132 H132       36.6147   24.9254    8.0302 H         1 UNK         0.3459 
    133 H133       35.8186   25.1071    9.5712 H         1 UNK         0.3459 
    134 H134       35.7087   24.2777    5.9298 H         1 UNK         0.0616 
    135 H135       35.1063   25.1954    4.5896 H         1 UNK         0.0616 
    136 H136       32.5825   25.5679    4.0409 H         1 UNK         0.0634 
    137 H137       33.1318   24.0618    3.3441 H         1 UNK         0.0634 
@<TRIPOS>BOND
     1    1    2 1    
     2    1   72 1    
     3    1   73 1    
     4    1   74 1    
     5    2    3 2    
     6    2    4 am   BACKBONE|DICT|INTERRES
     7    4    5 1    
     8    4   75 1    
     9    5    6 1    
    10    5   35 1    
    11    5   76 1    
    12    6    7 1    
    13    6   77 1    
    14    6   78 1    
    15    7    8 1    
    16    8    9 1    
    17    8   79 1    
    18    8   80 1    
    19    9   10 ar   
    20    9   14 ar   
    21   10   11 ar   
    22   10   81 1    
    23   11   12 ar   
    24   11   71 1    
    25   12   13 ar   
    26   12   82 1    
    27   13   14 ar   
    28   13   15 1    
    29   14   83 1    
    30   15   16 1    
    31   15   84 1    
    32   15   85 1    
    33   16   17 1    
    34   17   18 1    
    35   17   86 1    
    36   17   87 1    
    37   18   19 1    
    38   18   37 1    
    39   18   88 1    
    40   19   20 am   BACKBONE|DICT|INTERRES
    41   19   89 1    
    42   20   21 2    
    43   20   22 1    
    44   22   23 1    
    45   22   24 1    
    46   22   90 1    
    47   23   91 1    
    48   23   92 1    
    49   23   93 1    
    50   24   25 am   BACKBONE|DICT|INTERRES
    51   24   94 1    
    52   25   26 2    
    53   25   27 1    
    54   27   28 1    
    55   27   29 1    
    56   27   95 1    
    57   28   96 1    
    58   28   97 1    
    59   28   98 1    
    60   29   30 am   BACKBONE|DICT|INTERRES
    61   29   99 1    
    62   30   31 2    
    63   30   32 1    
    64   32   33 1    
    65   32   34 1    
    66   32  100 1    
    67   33  101 1    
    68   33  102 1    
    69   33  103 1    
    70   34   35 am   BACKBONE|DICT|INTERRES
    71   34  104 1    
    72   35   36 2    
    73   37   38 2    
    74   37   39 am   BACKBONE|DICT|INTERRES
    75   39   40 1    
    76   39  105 1    
    77   40   41 1    
    78   40   42 1    
    79   40  106 1    
    80   41  107 1    
    81   41  108 1    
    82   41  109 1    
    83   42   43 2    
    84   42   44 am   BACKBONE|DICT|INTERRES
    85   44   45 1    
    86   44  110 1    
    87   45   46 1    
    88   45   47 1    
    89   45  111 1    
    90   46  112 1    
    91   46  113 1    
    92   46  114 1    
    93   47   48 2    
    94   47   49 am   BACKBONE|DICT|INTERRES
    95   49   50 1    
    96   49  115 1    
    97   50   51 1    
    98   50   52 1    
    99   50  116 1    
   100   51  117 1    
   101   51  118 1    
   102   51  119 1    
   103   52   53 2    
   104   52   54 am   BACKBONE|DICT|INTERRES
   105   54   55 1    
   106   54  120 1    
   107   55   56 1    
   108   55   57 1    
   109   55  121 1    
   110   56  122 1    
   111   56  123 1    
   112   56  124 1    
   113   57   58 2    
   114   57   59 am   BACKBONE|DICT|INTERRES
   115   59   60 1    
   116   59  125 1    
   117   60   61 1    
   118   60   62 1    
   119   60  126 1    
   120   61  127 1    
   121   61  128 1    
   122   61  129 1    
   123   62   63 2    
   124   62   64 am   BACKBONE|DICT|INTERRES
   125   64   65 1    
   126   64  130 1    
   127   65   66 1    
   128   65   69 1    
   129   65  131 1    
   130   66   67 am   BACKBONE|DICT|INTERRES
   131   66   68 2    
   132   67  132 1    
   133   67  133 1    
   134   69   70 1    
   135   69  134 1    
   136   69  135 1    
   137   70   71 1    
   138   71  136 1    
   139   71  137 1    
@<TRIPOS>SUBSTRUCTURE
     1 UNK         1 GROUP             0       ****    0 ROOT    
