@<TRIPOS>MOLECULE
3R136
137   139    1
SMALL
USER_CHARGES


@<TRIPOS>ATOM
      1 CA         31.9335   19.8079   -1.1002 C.3       0 UNK        -0.1979 
      2 C          31.0622   20.8030   -0.3494 C.2       0 UNK         0.4864 
      3 O          31.0739   21.9929   -0.6698 O.2       0 UNK        -0.5359 
      4 N          30.2901   20.3281    0.6370 N.am      1 UNK        -0.4318 
      5 CA         29.4310   21.1292    1.5220 C.3       1 UNK         0.0824 
      6 C6         29.1761   20.4212    2.8824 C.3       12 UNK        -0.0944 
      7 S7         30.7124   19.8780    3.7117 S.3       12 UNK        -0.2672 
      8 C8         31.0462   21.2533    4.8619 C.3       12 UNK         0.0333 
      9 C9         31.2315   22.5815    4.1399 C.ar      12 UNK        -0.0807 
     10 C10        32.2509   22.7376    3.1959 C.ar      12 UNK        -0.0894 
     11 C11        32.3945   23.9385    2.4942 C.ar      12 UNK        -0.0804 
     12 C12        31.5249   25.0003    2.7629 C.ar      12 UNK        -0.0824 
     13 C13        30.5206   24.8645    3.7268 C.ar      12 UNK        -0.0762 
     14 C14        30.3734   23.6518    4.4055 C.ar      12 UNK        -0.0782 
     15 C15        29.6009   26.0277    4.0533 C.3       12 UNK         0.0230 
     16 S16        28.1120   26.0205    3.0127 S.3       12 UNK        -0.2608 
     17 C17        27.2489   27.4618    3.7225 C.3       12 UNK        -0.0989 
     18 CA         27.7152   28.7887    3.0785 C.3       5 UNK         0.0716 
     19 N          27.3340   28.8802    1.6708 N.am      5 UNK        -0.4135 
     20 C          27.6215   29.8721    0.8182 C.2       4 UNK         0.5031 
     21 O          28.2016   30.9148    1.1339 O.2       4 UNK        -0.5229 
     22 CA         27.2382   29.6096   -0.6539 C.3       4 UNK         0.0329 
     23 CB         27.4707   30.8330   -1.5592 C.3       4 UNK        -0.2001 
     24 N          27.9882   28.4680   -1.1914 N.am      4 UNK        -0.4303 
     25 C          27.7458   27.1832   -0.8985 C.2       3 UNK         0.5044 
     26 O          26.7672   26.8147   -0.2420 O.2       3 UNK        -0.5152 
     27 CA         28.8144   26.1693   -1.3473 C.3       3 UNK         0.0319 
     28 CB         30.1487   26.4335   -0.6241 C.3       3 UNK        -0.2001 
     29 N          28.4094   24.7950   -1.0547 N.am      3 UNK        -0.4354 
     30 C          27.5224   24.0775   -1.7567 C.2       2 UNK         0.4964 
     31 O          26.9966   24.4754   -2.7980 O.2       2 UNK        -0.5047 
     32 CA         27.1782   22.6793   -1.2102 C.3       2 UNK         0.0288 
     33 CB         26.8866   21.6620   -2.3301 C.3       2 UNK        -0.2113 
     34 N          28.2573   22.1673   -0.3634 N.am      2 UNK        -0.4145 
     35 C          28.1210   21.5661    0.8233 C.2       1 UNK         0.5006 
     36 O          27.0291   21.3455    1.3516 O.2       1 UNK        -0.5103 
     37 C          27.2223   29.9982    3.8886 C.2       5 UNK         0.5055 
     38 O          26.0191   30.2638    3.9176 O.2       5 UNK        -0.5220 
     39 N          28.1746   30.7141    4.4995 N.am      6 UNK        -0.4450 
     40 CA         28.0485   31.9345    5.3081 C.3       6 UNK         0.0367 
     41 CB         27.1051   31.7310    6.5098 C.3       6 UNK        -0.1929 
     42 C          27.6741   33.1956    4.5072 C.2       6 UNK         0.5070 
     43 O          28.0485   34.2925    4.9222 O.2       6 UNK        -0.5237 
     44 N          26.9738   33.0354    3.3769 N.am      7 UNK        -0.4739 
     45 CA         26.6478   34.0994    2.4274 C.3       7 UNK         0.0276 
     46 CB         25.6086   33.5870    1.4171 C.3       7 UNK        -0.1927 
     47 C          27.8987   34.6336    1.7119 C.2       7 UNK         0.5013 
     48 O          28.0610   35.8507    1.6128 O.2       7 UNK        -0.5193 
     49 N          28.7625   33.7177    1.2536 N.am      8 UNK        -0.4253 
     50 CA         30.0692   34.0308    0.6788 C.3       8 UNK         0.0242 
     51 CB         30.3151   33.1615   -0.5662 C.3       8 UNK        -0.2000 
     52 C          31.1734   33.8244    1.7233 C.2       8 UNK         0.4948 
     53 O          31.9146   34.7646    2.0125 O.2       8 UNK        -0.5275 
     54 N          31.2645   32.6033    2.2644 N.am      9 UNK        -0.4246 
     55 CA         32.2843   32.1357    3.2045 C.3       9 UNK         0.0261 
     56 CB         33.6743   32.1008    2.5258 C.3       9 UNK        -0.1959 
     57 C          31.8659   30.7438    3.7043 C.2       9 UNK         0.5033 
     58 O          30.7394   30.3176    3.4411 O.2       9 UNK        -0.5390 
     59 N          32.7690   30.0440    4.3956 N.am      10 UNK        -0.4215 
     60 CA         32.6398   28.6341    4.7518 C.3       10 UNK         0.0240 
     61 CB         31.8759   28.4779    6.0788 C.3       10 UNK        -0.1982 
     62 C          34.0459   28.0315    4.8257 C.2       10 UNK         0.4970 
     63 O          35.0011   28.7595    5.1100 O.2       10 UNK        -0.4916 
     64 N          34.1478   26.7262    4.5541 N.am      11 UNK        -0.4279 
     65 CA         35.4243   25.9958    4.4616 C.3       11 UNK         0.1003 
     66 C          36.0057   25.5337    5.8294 C.2       11 UNK         0.5709 
     67 N          35.3054   25.7046    6.9447 N.am      11 UNK        -0.7358 
     68 O          37.1211   25.0207    5.8814 O.2       11 UNK        -0.4999 
     69 C69        35.3495   24.8199    3.4494 C.3       12 UNK        -0.0954 
     70 S70        34.7196   25.3442    1.8144 S.3       12 UNK        -0.2268 
     71 C71        33.4761   24.0680    1.4291 C.3       12 UNK         0.0203 
     72 H72        32.9821   20.0921   -1.0164 H         1 UNK         0.0888 
     73 H73        31.8242   18.7958   -0.7111 H         1 UNK         0.0888 
     74 H74        31.6658   19.7973   -2.1564 H         1 UNK         0.0888 
     75 H75        30.3101   19.3398    0.8445 H         1 UNK         0.3017 
     76 H76        29.9599   22.0587    1.7373 H         1 UNK         0.0873 
     77 H77        28.6221   21.0764    3.5576 H         1 UNK         0.0745 
     78 H78        28.5512   19.5379    2.7381 H         1 UNK         0.0745 
     79 H79        31.9510   21.0283    5.4279 H         1 UNK         0.0705 
     80 H80        30.2346   21.3110    5.5890 H         1 UNK         0.0705 
     81 H81        32.9130   21.9081    2.9876 H         1 UNK         0.1334 
     82 H82        31.6353   25.9311    2.2235 H         1 UNK         0.1417 
     83 H83        29.5858   23.5427    5.1391 H         1 UNK         0.1562 
     84 H84        30.1269   26.9713    3.9146 H         1 UNK         0.0748 
     85 H85        29.3133   25.9886    5.1053 H         1 UNK         0.0748 
     86 H86        27.4125   27.4692    4.8023 H         1 UNK         0.0940 
     87 H87        26.1739   27.3277    3.5859 H         1 UNK         0.0940 
     88 H88        28.8042   28.7936    3.0908 H         1 UNK         0.0703 
     89 H89        26.9010   28.0498    1.2781 H         1 UNK         0.3081 
     90 H90        26.1709   29.3785   -0.6759 H         1 UNK         0.0719 
     91 H91        28.5293   31.0761   -1.6438 H         1 UNK         0.0809 
     92 H92        27.0886   30.6574   -2.5649 H         1 UNK         0.0809 
     93 H93        26.9613   31.7156   -1.1708 H         1 UNK         0.0809 
     94 H94        28.8237   28.6919   -1.7126 H         1 UNK         0.2990 
     95 H95        28.9629   26.2745   -2.4240 H         1 UNK         0.0690 
     96 H96        30.8977   25.6843   -0.8832 H         1 UNK         0.0788 
     97 H97        30.0243   26.4205    0.4594 H         1 UNK         0.0788 
     98 H98        30.5643   27.4055   -0.8917 H         1 UNK         0.0788 
     99 H99        28.7432   24.4113   -0.1831 H         1 UNK         0.2993 
    100 H100       26.2720   22.8057   -0.6139 H         1 UNK         0.0949 
    101 H101       27.7489   21.5291   -2.9846 H         1 UNK         0.0767 
    102 H102       26.6239   20.6869   -1.9195 H         1 UNK         0.0767 
    103 H103       26.0494   21.9858   -2.9498 H         1 UNK         0.0767 
    104 H104       29.2070   22.2867   -0.7131 H         1 UNK         0.3013 
    105 H105       29.1375   30.4620    4.2719 H         1 UNK         0.3121 
    106 H106       29.0483   32.1160    5.7062 H         1 UNK         0.0774 
    107 H107       27.1266   32.5996    7.1691 H         1 UNK         0.0815 
    108 H108       26.0698   31.5905    6.1986 H         1 UNK         0.0815 
    109 H109       27.3993   30.8658    7.1038 H         1 UNK         0.0815 
    110 H110       26.6762   32.0958    3.1417 H         1 UNK         0.2987 
    111 H111       26.2044   34.9272    2.9853 H         1 UNK         0.0949 
    112 H112       25.3523   34.3621    0.6936 H         1 UNK         0.0806 
    113 H113       25.9764   32.7263    0.8582 H         1 UNK         0.0806 
    114 H114       24.6853   33.2913    1.9155 H         1 UNK         0.0806 
    115 H115       28.5307   32.7309    1.3564 H         1 UNK         0.3010 
    116 H116       30.1017   35.0754    0.3613 H         1 UNK         0.0829 
    117 H117       29.5638   33.3531   -1.3324 H         1 UNK         0.0813 
    118 H118       31.2891   33.3788   -1.0064 H         1 UNK         0.0813 
    119 H119       30.2928   32.0964   -0.3338 H         1 UNK         0.0813 
    120 H120       30.5802   31.8926    2.0275 H         1 UNK         0.3038 
    121 H121       32.3066   32.8110    4.0618 H         1 UNK         0.0769 
    122 H122       33.6936   31.3998    1.6903 H         1 UNK         0.0811 
    123 H123       34.4574   31.8028    3.2234 H         1 UNK         0.0811 
    124 H124       33.9641   33.0786    2.1422 H         1 UNK         0.0811 
    125 H125       33.6909   30.4280    4.5655 H         1 UNK         0.3204 
    126 H126       32.1010   28.1201    3.9540 H         1 UNK         0.0748 
    127 H127       31.7738   27.4271    6.3524 H         1 UNK         0.0771 
    128 H128       32.3881   28.9836    6.8984 H         1 UNK         0.0771 
    129 H129       30.8698   28.8918    6.0077 H         1 UNK         0.0771 
    130 H130       33.3205   26.1882    4.3430 H         1 UNK         0.2980 
    131 H131       36.1658   26.6918    4.0639 H         1 UNK         0.0545 
    132 H132       34.3938   26.1306    6.9158 H         1 UNK         0.3459 
    133 H133       35.6973   25.4059    7.8238 H         1 UNK         0.3459 
    134 H134       34.7322   24.0163    3.8514 H         1 UNK         0.0616 
    135 H135       36.3398   24.3880    3.2950 H         1 UNK         0.0616 
    136 H136       33.9889   23.1167    1.2793 H         1 UNK         0.0634 
    137 H137       33.0045   24.3119    0.4761 H         1 UNK         0.0634 
@<TRIPOS>BOND
     1    1    2 1    
     2    1   72 1    
     3    1   73 1    
     4    1   74 1    
     5    2    3 2    
     6    2    4 am   BACKBONE|DICT|INTERRES
     7    4    5 1    
     8    4   75 1    
     9    5    6 1    
    10    5   35 1    
    11    5   76 1    
    12    6    7 1    
    13    6   77 1    
    14    6   78 1    
    15    7    8 1    
    16    8    9 1    
    17    8   79 1    
    18    8   80 1    
    19    9   10 ar   
    20    9   14 ar   
    21   10   11 ar   
    22   10   81 1    
    23   11   12 ar   
    24   11   71 1    
    25   12   13 ar   
    26   12   82 1    
    27   13   14 ar   
    28   13   15 1    
    29   14   83 1    
    30   15   16 1    
    31   15   84 1    
    32   15   85 1    
    33   16   17 1    
    34   17   18 1    
    35   17   86 1    
    36   17   87 1    
    37   18   19 1    
    38   18   37 1    
    39   18   88 1    
    40   19   20 am   BACKBONE|DICT|INTERRES
    41   19   89 1    
    42   20   21 2    
    43   20   22 1    
    44   22   23 1    
    45   22   24 1    
    46   22   90 1    
    47   23   91 1    
    48   23   92 1    
    49   23   93 1    
    50   24   25 am   BACKBONE|DICT|INTERRES
    51   24   94 1    
    52   25   26 2    
    53   25   27 1    
    54   27   28 1    
    55   27   29 1    
    56   27   95 1    
    57   28   96 1    
    58   28   97 1    
    59   28   98 1    
    60   29   30 am   BACKBONE|DICT|INTERRES
    61   29   99 1    
    62   30   31 2    
    63   30   32 1    
    64   32   33 1    
    65   32   34 1    
    66   32  100 1    
    67   33  101 1    
    68   33  102 1    
    69   33  103 1    
    70   34   35 am   BACKBONE|DICT|INTERRES
    71   34  104 1    
    72   35   36 2    
    73   37   38 2    
    74   37   39 am   BACKBONE|DICT|INTERRES
    75   39   40 1    
    76   39  105 1    
    77   40   41 1    
    78   40   42 1    
    79   40  106 1    
    80   41  107 1    
    81   41  108 1    
    82   41  109 1    
    83   42   43 2    
    84   42   44 am   BACKBONE|DICT|INTERRES
    85   44   45 1    
    86   44  110 1    
    87   45   46 1    
    88   45   47 1    
    89   45  111 1    
    90   46  112 1    
    91   46  113 1    
    92   46  114 1    
    93   47   48 2    
    94   47   49 am   BACKBONE|DICT|INTERRES
    95   49   50 1    
    96   49  115 1    
    97   50   51 1    
    98   50   52 1    
    99   50  116 1    
   100   51  117 1    
   101   51  118 1    
   102   51  119 1    
   103   52   53 2    
   104   52   54 am   BACKBONE|DICT|INTERRES
   105   54   55 1    
   106   54  120 1    
   107   55   56 1    
   108   55   57 1    
   109   55  121 1    
   110   56  122 1    
   111   56  123 1    
   112   56  124 1    
   113   57   58 2    
   114   57   59 am   BACKBONE|DICT|INTERRES
   115   59   60 1    
   116   59  125 1    
   117   60   61 1    
   118   60   62 1    
   119   60  126 1    
   120   61  127 1    
   121   61  128 1    
   122   61  129 1    
   123   62   63 2    
   124   62   64 am   BACKBONE|DICT|INTERRES
   125   64   65 1    
   126   64  130 1    
   127   65   66 1    
   128   65   69 1    
   129   65  131 1    
   130   66   67 am   BACKBONE|DICT|INTERRES
   131   66   68 2    
   132   67  132 1    
   133   67  133 1    
   134   69   70 1    
   135   69  134 1    
   136   69  135 1    
   137   70   71 1    
   138   71  136 1    
   139   71  137 1    
@<TRIPOS>SUBSTRUCTURE
     1 UNK         1 GROUP             0       ****    0 ROOT    
