@<TRIPOS>MOLECULE
3R136
137   139    1
SMALL
USER_CHARGES


@<TRIPOS>ATOM
      1 CA         30.3675   23.3005    1.1991 C.3       0 UNK        -0.1979 
      2 C          30.9046   24.7121    1.0290 C.2       0 UNK         0.4864 
      3 O          31.7961   24.9295    0.2090 O.2       0 UNK        -0.5359 
      4 N          30.3588   25.6797    1.7774 N.am      1 UNK        -0.4318 
      5 CA         30.6554   27.1144    1.6829 C.3       1 UNK         0.0824 
      6 C6         30.2332   27.8622    2.9793 C.3       12 UNK        -0.0944 
      7 S7         31.5755   27.9196    4.2105 S.3       12 UNK        -0.2672 
      8 C8         30.9732   26.8412    5.5498 C.3       12 UNK         0.0333 
      9 C9         31.0732   25.3675    5.1855 C.ar      12 UNK        -0.0807 
     10 C10        32.2703   24.8434    4.6952 C.ar      12 UNK        -0.0894 
     11 C11        32.3683   23.5051    4.3004 C.ar      12 UNK        -0.0804 
     12 C12        31.2404   22.6848    4.4313 C.ar      12 UNK        -0.0824 
     13 C13        30.0411   23.1848    4.9554 C.ar      12 UNK        -0.0762 
     14 C14        29.9745   24.5248    5.3465 C.ar      12 UNK        -0.0782 
     15 C15        28.8301   22.2722    5.1219 C.3       12 UNK         0.0230 
     16 S16        27.4762   22.6693    3.9606 S.3       12 UNK        -0.2608 
     17 C17        26.6233   24.0450    4.8085 C.3       12 UNK        -0.0989 
     18 CA         26.7838   25.3896    4.0463 C.3       5 UNK         0.0716 
     19 N          26.0396   25.3635    2.7748 N.am      5 UNK        -0.4135 
     20 C          26.1949   26.2002    1.7422 C.2       4 UNK         0.5031 
     21 O          26.9692   27.1582    1.7589 O.2       4 UNK        -0.5229 
     22 CA         25.2994   25.9878    0.5212 C.3       4 UNK         0.0329 
     23 CB         23.8855   26.5382    0.7944 C.3       4 UNK        -0.2001 
     24 N          25.9035   26.6850   -0.6127 N.am      4 UNK        -0.4303 
     25 C          25.5860   26.5057   -1.8993 C.2       3 UNK         0.5044 
     26 O          24.7317   25.7065   -2.2857 O.2       3 UNK        -0.5152 
     27 CA         26.3274   27.3617   -2.9442 C.3       3 UNK         0.0319 
     28 CB         25.4934   28.6016   -3.3061 C.3       3 UNK        -0.2001 
     29 N          27.6769   27.7885   -2.5586 N.am      3 UNK        -0.4354 
     30 C          28.7197   26.9693   -2.3658 C.2       2 UNK         0.4964 
     31 O          28.6415   25.7407   -2.4087 O.2       2 UNK        -0.5047 
     32 CA         30.0954   27.6127   -2.1117 C.3       2 UNK         0.0288 
     33 CB         30.1695   29.1307   -2.4080 C.3       2 UNK        -0.2113 
     34 N          30.5671   27.2975   -0.7623 N.am      2 UNK        -0.4145 
     35 C          30.0418   27.7155    0.3969 C.2       1 UNK         0.5006 
     36 O          29.1229   28.5286    0.4672 O.2       1 UNK        -0.5103 
     37 C          26.4804   26.6281    4.9366 C.2       5 UNK         0.5055 
     38 O          26.2945   26.4880    6.1464 O.2       5 UNK        -0.5220 
     39 N          26.4592   27.8160    4.3236 N.am      6 UNK        -0.4450 
     40 CA         26.2159   29.1360    4.9087 C.3       6 UNK         0.0367 
     41 CB         24.7902   29.2138    5.4993 C.3       6 UNK        -0.1929 
     42 C          26.4191   30.2828    3.8951 C.2       6 UNK         0.5070 
     43 O          26.3558   31.4414    4.3072 O.2       6 UNK        -0.5237 
     44 N          26.6173   29.9873    2.5984 N.am      7 UNK        -0.4739 
     45 CA         26.6123   30.9902    1.5235 C.3       7 UNK         0.0276 
     46 CB         26.1550   30.3145    0.2184 C.3       7 UNK        -0.1927 
     47 C          27.9501   31.7319    1.3258 C.2       7 UNK         0.5013 
     48 O          28.0015   32.6604    0.5169 O.2       7 UNK        -0.5193 
     49 N          28.9982   31.3296    2.0505 N.am      8 UNK        -0.4253 
     50 CA         30.3460   31.8951    2.0074 C.3       8 UNK         0.0242 
     51 CB         31.1171   31.3582    0.7795 C.3       8 UNK        -0.2000 
     52 C          31.0463   31.6104    3.3468 C.2       8 UNK         0.4948 
     53 O          30.3684   31.4850    4.3696 O.2       8 UNK        -0.5275 
     54 N          32.3789   31.5051    3.3234 N.am      9 UNK        -0.4246 
     55 CA         33.2256   31.1397    4.4550 C.3       9 UNK         0.0261 
     56 CB         33.7670   32.4156    5.1231 C.3       9 UNK        -0.1959 
     57 C          34.3718   30.2570    3.9438 C.2       9 UNK         0.5033 
     58 O          34.6794   30.2923    2.7484 O.2       9 UNK        -0.5390 
     59 N          34.9816   29.4910    4.8611 N.am      10 UNK        -0.4215 
     60 CA         36.1841   28.6609    4.6762 C.3       10 UNK         0.0240 
     61 CB         37.4280   29.5661    4.5435 C.3       10 UNK        -0.1982 
     62 C          36.0904   27.6214    3.5368 C.2       10 UNK         0.4970 
     63 O          37.1010   27.3271    2.8957 O.2       10 UNK        -0.4916 
     64 N          34.8806   27.0961    3.3026 N.am      11 UNK        -0.4279 
     65 CA         34.5322   26.1878    2.1945 C.3       11 UNK         0.1003 
     66 C          34.6272   26.8559    0.7851 C.2       11 UNK         0.5709 
     67 N          34.5685   28.1793    0.6731 N.am      11 UNK        -0.7358 
     68 O          34.7452   26.1739   -0.2296 O.2       11 UNK        -0.4999 
     69 C69        35.2392   24.7985    2.2549 C.3       12 UNK        -0.0954 
     70 S70        35.1591   23.9490    3.8734 S.3       12 UNK        -0.2268 
     71 C71        33.6581   22.9068    3.7276 C.3       12 UNK         0.0203 
     72 H72        29.6063   23.2470    1.9757 H         1 UNK         0.0888 
     73 H73        29.9232   22.9552    0.2661 H         1 UNK         0.0888 
     74 H74        31.1753   22.6195    1.4639 H         1 UNK         0.0888 
     75 H75        29.6333   25.4339    2.4328 H         1 UNK         0.3017 
     76 H76        31.7308   27.2403    1.5597 H         1 UNK         0.0873 
     77 H77        29.3274   27.4374    3.4121 H         1 UNK         0.0745 
     78 H78        29.9944   28.9042    2.7780 H         1 UNK         0.0745 
     79 H79        29.9499   27.1222    5.8046 H         1 UNK         0.0705 
     80 H80        31.5754   27.0209    6.4412 H         1 UNK         0.0705 
     81 H81        33.1194   25.5017    4.6171 H         1 UNK         0.1334 
     82 H82        31.3005   21.6478    4.1295 H         1 UNK         0.1417 
     83 H83        29.0677   24.9200    5.7771 H         1 UNK         0.1562 
     84 H84        28.4703   22.3164    6.1508 H         1 UNK         0.0748 
     85 H85        29.1208   21.2337    4.9558 H         1 UNK         0.0748 
     86 H86        26.9954   24.1040    5.8318 H         1 UNK         0.0940 
     87 H87        25.5664   23.7915    4.9090 H         1 UNK         0.0940 
     88 H88        27.8371   25.4917    3.7827 H         1 UNK         0.0703 
     89 H89        25.3581   24.6233    2.6899 H         1 UNK         0.3081 
     90 H90        25.2527   24.9191    0.3022 H         1 UNK         0.0719 
     91 H91        23.9055   27.6084    1.0049 H         1 UNK         0.0809 
     92 H92        23.2216   26.3789   -0.0553 H         1 UNK         0.0809 
     93 H93        23.4272   26.0453    1.6526 H         1 UNK         0.0809 
     94 H94        26.6537   27.3184   -0.3591 H         1 UNK         0.2990 
     95 H95        26.4267   26.7497   -3.8433 H         1 UNK         0.0690 
     96 H96        25.9516   29.1672   -4.1177 H         1 UNK         0.0788 
     97 H97        25.3734   29.2711   -2.4540 H         1 UNK         0.0788 
     98 H98        24.4939   28.3163   -3.6378 H         1 UNK         0.0788 
     99 H99        27.8368   28.7825   -2.4825 H         1 UNK         0.2993 
    100 H100       30.7870   27.1173   -2.7951 H         1 UNK         0.0949 
    101 H101       31.1807   29.5070   -2.2520 H         1 UNK         0.0767 
    102 H102       29.9095   29.3387   -3.4467 H         1 UNK         0.0767 
    103 H103       29.5032   29.7203   -1.7779 H         1 UNK         0.0767 
    104 H104       31.2534   26.5487   -0.6993 H         1 UNK         0.3013 
    105 H105       26.6586   27.7877    3.3256 H         1 UNK         0.3121 
    106 H106       26.9410   29.2864    5.7108 H         1 UNK         0.0774 
    107 H107       24.5790   30.2085    5.8942 H         1 UNK         0.0815 
    108 H108       24.0337   28.9958    4.7447 H         1 UNK         0.0815 
    109 H109       24.6512   28.5164    6.3246 H         1 UNK         0.0815 
    110 H110       26.7314   29.0295    2.2864 H         1 UNK         0.2987 
    111 H111       25.8719   31.7552    1.7683 H         1 UNK         0.0949 
    112 H112       26.0828   31.0390   -0.5938 H         1 UNK         0.0806 
    113 H113       26.8501   29.5396   -0.1002 H         1 UNK         0.0806 
    114 H114       25.1722   29.8567    0.3303 H         1 UNK         0.0806 
    115 H115       28.8507   30.6106    2.7449 H         1 UNK         0.3010 
    116 H116       30.2616   32.9803    1.9219 H         1 UNK         0.0829 
    117 H117       30.5361   31.4682   -0.1362 H         1 UNK         0.0813 
    118 H118       32.0497   31.9014    0.6251 H         1 UNK         0.0813 
    119 H119       31.3628   30.3018    0.8873 H         1 UNK         0.0813 
    120 H120       32.8696   31.5402    2.4385 H         1 UNK         0.3038 
    121 H121       32.6472   30.5661    5.1824 H         1 UNK         0.0769 
    122 H122       34.4013   32.1757    5.9773 H         1 UNK         0.0811 
    123 H123       32.9551   33.0437    5.4903 H         1 UNK         0.0811 
    124 H124       34.3629   33.0107    4.4298 H         1 UNK         0.0811 
    125 H125       34.6224   29.5178    5.8060 H         1 UNK         0.3204 
    126 H126       36.2971   28.0812    5.5936 H         1 UNK         0.0748 
    127 H127       38.3469   28.9782    4.5412 H         1 UNK         0.0771 
    128 H128       37.4071   30.1434    3.6183 H         1 UNK         0.0771 
    129 H129       37.4991   30.2679    5.3745 H         1 UNK         0.0771 
    130 H130       34.1034   27.4271    3.8558 H         1 UNK         0.2980 
    131 H131       33.4708   25.9855    2.3210 H         1 UNK         0.0545 
    132 H132       34.6354   28.5902   -0.2436 H         1 UNK         0.3459 
    133 H133       34.5439   28.7823    1.4893 H         1 UNK         0.3459 
    134 H134       34.8234   24.1334    1.4964 H         1 UNK         0.0616 
    135 H135       36.2941   24.9083    1.9998 H         1 UNK         0.0616 
    136 H136       33.4955   22.6389    2.6832 H         1 UNK         0.0634 
    137 H137       33.8626   21.9724    4.2522 H         1 UNK         0.0634 
@<TRIPOS>BOND
     1    1    2 1    
     2    1   72 1    
     3    1   73 1    
     4    1   74 1    
     5    2    3 2    
     6    2    4 am   BACKBONE|DICT|INTERRES
     7    4    5 1    
     8    4   75 1    
     9    5    6 1    
    10    5   35 1    
    11    5   76 1    
    12    6    7 1    
    13    6   77 1    
    14    6   78 1    
    15    7    8 1    
    16    8    9 1    
    17    8   79 1    
    18    8   80 1    
    19    9   10 ar   
    20    9   14 ar   
    21   10   11 ar   
    22   10   81 1    
    23   11   12 ar   
    24   11   71 1    
    25   12   13 ar   
    26   12   82 1    
    27   13   14 ar   
    28   13   15 1    
    29   14   83 1    
    30   15   16 1    
    31   15   84 1    
    32   15   85 1    
    33   16   17 1    
    34   17   18 1    
    35   17   86 1    
    36   17   87 1    
    37   18   19 1    
    38   18   37 1    
    39   18   88 1    
    40   19   20 am   BACKBONE|DICT|INTERRES
    41   19   89 1    
    42   20   21 2    
    43   20   22 1    
    44   22   23 1    
    45   22   24 1    
    46   22   90 1    
    47   23   91 1    
    48   23   92 1    
    49   23   93 1    
    50   24   25 am   BACKBONE|DICT|INTERRES
    51   24   94 1    
    52   25   26 2    
    53   25   27 1    
    54   27   28 1    
    55   27   29 1    
    56   27   95 1    
    57   28   96 1    
    58   28   97 1    
    59   28   98 1    
    60   29   30 am   BACKBONE|DICT|INTERRES
    61   29   99 1    
    62   30   31 2    
    63   30   32 1    
    64   32   33 1    
    65   32   34 1    
    66   32  100 1    
    67   33  101 1    
    68   33  102 1    
    69   33  103 1    
    70   34   35 am   BACKBONE|DICT|INTERRES
    71   34  104 1    
    72   35   36 2    
    73   37   38 2    
    74   37   39 am   BACKBONE|DICT|INTERRES
    75   39   40 1    
    76   39  105 1    
    77   40   41 1    
    78   40   42 1    
    79   40  106 1    
    80   41  107 1    
    81   41  108 1    
    82   41  109 1    
    83   42   43 2    
    84   42   44 am   BACKBONE|DICT|INTERRES
    85   44   45 1    
    86   44  110 1    
    87   45   46 1    
    88   45   47 1    
    89   45  111 1    
    90   46  112 1    
    91   46  113 1    
    92   46  114 1    
    93   47   48 2    
    94   47   49 am   BACKBONE|DICT|INTERRES
    95   49   50 1    
    96   49  115 1    
    97   50   51 1    
    98   50   52 1    
    99   50  116 1    
   100   51  117 1    
   101   51  118 1    
   102   51  119 1    
   103   52   53 2    
   104   52   54 am   BACKBONE|DICT|INTERRES
   105   54   55 1    
   106   54  120 1    
   107   55   56 1    
   108   55   57 1    
   109   55  121 1    
   110   56  122 1    
   111   56  123 1    
   112   56  124 1    
   113   57   58 2    
   114   57   59 am   BACKBONE|DICT|INTERRES
   115   59   60 1    
   116   59  125 1    
   117   60   61 1    
   118   60   62 1    
   119   60  126 1    
   120   61  127 1    
   121   61  128 1    
   122   61  129 1    
   123   62   63 2    
   124   62   64 am   BACKBONE|DICT|INTERRES
   125   64   65 1    
   126   64  130 1    
   127   65   66 1    
   128   65   69 1    
   129   65  131 1    
   130   66   67 am   BACKBONE|DICT|INTERRES
   131   66   68 2    
   132   67  132 1    
   133   67  133 1    
   134   69   70 1    
   135   69  134 1    
   136   69  135 1    
   137   70   71 1    
   138   71  136 1    
   139   71  137 1    
@<TRIPOS>SUBSTRUCTURE
     1 UNK         1 GROUP             0       ****    0 ROOT    
