@<TRIPOS>MOLECULE
3R136
137   139    1
SMALL
USER_CHARGES


@<TRIPOS>ATOM
      1 CA         27.7815   16.2439    3.3941 C.3       0 UNK        -0.1979 
      2 C          27.8098   17.5104    2.5509 C.2       0 UNK         0.4864 
      3 O          26.7515   18.0318    2.1954 O.2       0 UNK        -0.5359 
      4 N          29.0109   18.0032    2.2216 N.am      1 UNK        -0.4318 
      5 CA         29.2282   19.2477    1.4798 C.3       1 UNK         0.0824 
      6 C6         30.6737   19.3148    0.9254 C.3       12 UNK        -0.0944 
      7 S7         30.8864   20.5613   -0.3940 S.3       12 UNK        -0.2672 
      8 C8         32.4387   21.3821    0.0997 C.3       12 UNK         0.0333 
      9 C9         32.1931   22.6506    0.9071 C.ar      12 UNK        -0.0807 
     10 C10        31.8022   22.5740    2.2471 C.ar      12 UNK        -0.0894 
     11 C11        31.5742   23.7352    2.9917 C.ar      12 UNK        -0.0804 
     12 C12        31.7617   24.9826    2.3921 C.ar      12 UNK        -0.0824 
     13 C13        32.2071   25.0736    1.0708 C.ar      12 UNK        -0.0762 
     14 C14        32.3978   23.9065    0.3246 C.ar      12 UNK        -0.0782 
     15 C15        32.5326   26.4340    0.4775 C.3       12 UNK         0.0230 
     16 S16        31.0368   27.2923   -0.0866 S.3       12 UNK        -0.2608 
     17 C17        31.4689   29.0067    0.3515 C.3       12 UNK        -0.0989 
     18 CA         30.3723   30.0158   -0.0590 C.3       5 UNK         0.0716 
     19 N          29.0650   29.6674    0.5025 N.am      5 UNK        -0.4135 
     20 C          27.9118   30.3154    0.2960 C.2       4 UNK         0.5031 
     21 O          27.8130   31.3228   -0.4076 O.2       4 UNK        -0.5229 
     22 CA         26.6629   29.7188    0.9777 C.3       4 UNK         0.0329 
     23 CB         25.3814   30.5114    0.6595 C.3       4 UNK        -0.2001 
     24 N          26.4634   28.3131    0.6092 N.am      4 UNK        -0.4303 
     25 C          27.1502   27.2799    1.1125 C.2       3 UNK         0.5044 
     26 O          28.0107   27.3960    1.9908 O.2       3 UNK        -0.5152 
     27 CA         26.8682   25.9049    0.4983 C.3       3 UNK         0.0319 
     28 CB         27.5131   25.7891   -0.8988 C.3       3 UNK        -0.2001 
     29 N          27.3989   24.8866    1.4002 N.am      3 UNK        -0.4354 
     30 C          27.1867   23.5712    1.3156 C.2       2 UNK         0.4964 
     31 O          26.5119   23.0329    0.4334 O.2       2 UNK        -0.5047 
     32 CA         27.8095   22.7060    2.4149 C.3       2 UNK         0.0288 
     33 CB         26.8345   22.5417    3.5978 C.3       2 UNK        -0.2113 
     34 N          28.1433   21.4152    1.8230 N.am      2 UNK        -0.4145 
     35 C          28.9016   20.4620    2.3719 C.2       1 UNK         0.5006 
     36 O          29.3658   20.5166    3.5139 O.2       1 UNK        -0.5103 
     37 C          30.7754   31.4438    0.3473 C.2       5 UNK         0.5055 
     38 O          30.7052   31.7724    1.5367 O.2       5 UNK        -0.5220 
     39 N          31.1384   32.2662   -0.6475 N.am      6 UNK        -0.4450 
     40 CA         31.4683   33.6960   -0.5400 C.3       6 UNK         0.0367 
     41 CB         32.7625   33.8892    0.2801 C.3       6 UNK        -0.1929 
     42 C          30.3114   34.5716   -0.0068 C.2       6 UNK         0.5070 
     43 O          30.5653   35.6770    0.4717 O.2       6 UNK        -0.5237 
     44 N          29.0726   34.0517   -0.0594 N.am      7 UNK        -0.4739 
     45 CA         27.8401   34.5833    0.5425 C.3       7 UNK         0.0276 
     46 CB         27.4616   35.9492   -0.0683 C.3       7 UNK        -0.1927 
     47 C          27.8591   34.6163    2.0870 C.2       7 UNK         0.5013 
     48 O          26.9598   35.2087    2.6853 O.2       7 UNK        -0.5193 
     49 N          28.8642   33.9804    2.7044 N.am      8 UNK        -0.4253 
     50 CA         29.1067   33.9687    4.1487 C.3       8 UNK         0.0242 
     51 CB         30.4914   34.5904    4.4042 C.3       8 UNK        -0.2000 
     52 C          29.0464   32.5545    4.7486 C.2       8 UNK         0.4948 
     53 O          29.1163   32.4315    5.9718 O.2       8 UNK        -0.5275 
     54 N          28.9542   31.5243    3.8920 N.am      9 UNK        -0.4246 
     55 CA         29.1252   30.0987    4.1988 C.3       9 UNK         0.0261 
     56 CB         28.0292   29.5764    5.1513 C.3       9 UNK        -0.1959 
     57 C          30.5578   29.8085    4.6809 C.2       9 UNK         0.5033 
     58 O          30.7535   29.1913    5.7305 O.2       9 UNK        -0.5390 
     59 N          31.5363   30.2930    3.9017 N.am      10 UNK        -0.4215 
     60 CA         32.9800   30.2081    4.1418 C.3       10 UNK         0.0240 
     61 CB         33.6879   31.1949    3.1938 C.3       10 UNK        -0.1982 
     62 C          33.5481   28.7751    4.0356 C.2       10 UNK         0.4970 
     63 O          34.3821   28.4995    3.1721 O.2       10 UNK        -0.4916 
     64 N          33.0822   27.8918    4.9230 N.am      11 UNK        -0.4279 
     65 CA         33.5490   26.5092    5.1040 C.3       11 UNK         0.1003 
     66 C          34.9638   26.3907    5.7464 C.2       11 UNK         0.5709 
     67 N          35.4756   27.4190    6.4139 N.am      11 UNK        -0.7358 
     68 O          35.6183   25.3587    5.6219 O.2       11 UNK        -0.4999 
     69 C69        32.4787   25.6931    5.8803 C.3       12 UNK        -0.0954 
     70 S70        32.5340   23.8920    5.5842 S.3       12 UNK        -0.2268 
     71 C71        31.1357   23.6364    4.4448 C.3       12 UNK         0.0203 
     72 H72        28.7843   15.8848    3.6248 H         1 UNK         0.0888 
     73 H73        27.2641   16.4314    4.3346 H         1 UNK         0.0888 
     74 H74        27.2516   15.4524    2.8649 H         1 UNK         0.0888 
     75 H75        29.8434   17.5499    2.5703 H         1 UNK         0.3017 
     76 H76        28.5397   19.2404    0.6313 H         1 UNK         0.0873 
     77 H77        30.9419   18.3532    0.4844 H         1 UNK         0.0745 
     78 H78        31.3911   19.4767    1.7316 H         1 UNK         0.0745 
     79 H79        33.0715   20.6962    0.6646 H         1 UNK         0.0705 
     80 H80        32.9980   21.6191   -0.8066 H         1 UNK         0.0705 
     81 H81        31.6711   21.6080    2.7128 H         1 UNK         0.1334 
     82 H82        31.5917   25.8853    2.9623 H         1 UNK         0.1417 
     83 H83        32.7292   23.9766   -0.7026 H         1 UNK         0.1562 
     84 H84        33.2256   26.3373   -0.3596 H         1 UNK         0.0748 
     85 H85        33.0498   27.0312    1.2300 H         1 UNK         0.0748 
     86 H86        32.4178   29.2564   -0.1282 H         1 UNK         0.0940 
     87 H87        31.6476   29.0447    1.4269 H         1 UNK         0.0940 
     88 H88        30.2667   29.9795   -1.1454 H         1 UNK         0.0703 
     89 H89        29.0308   28.8201    1.0606 H         1 UNK         0.3081 
     90 H90        26.8246   29.7793    2.0559 H         1 UNK         0.0719 
     91 H91        25.1557   30.5046   -0.4077 H         1 UNK         0.0809 
     92 H92        24.5201   30.1022    1.1880 H         1 UNK         0.0809 
     93 H93        25.4803   31.5539    0.9653 H         1 UNK         0.0809 
     94 H94        25.8012   28.1362   -0.1330 H         1 UNK         0.2990 
     95 H95        25.7866   25.7778    0.4195 H         1 UNK         0.0690 
     96 H96        27.2048   26.6064   -1.5517 H         1 UNK         0.0788 
     97 H97        27.2282   24.8626   -1.3970 H         1 UNK         0.0788 
     98 H98        28.6012   25.8105   -0.8403 H         1 UNK         0.0788 
     99 H99        27.9502   25.2726    2.1583 H         1 UNK         0.2993 
    100 H100       28.7308   23.1792    2.7578 H         1 UNK         0.0949 
    101 H101       27.2836   21.9771    4.4147 H         1 UNK         0.0767 
    102 H102       26.5433   23.5120    4.0023 H         1 UNK         0.0767 
    103 H103       25.9225   22.0252    3.2959 H         1 UNK         0.0767 
    104 H104       27.7963   21.3020    0.8779 H         1 UNK         0.3013 
    105 H105       31.1383   31.8987   -1.5898 H         1 UNK         0.3121 
    106 H106       31.6638   34.0427   -1.5558 H         1 UNK         0.0774 
    107 H107       33.1102   34.9216    0.2263 H         1 UNK         0.0815 
    108 H108       32.6132   33.6541    1.3342 H         1 UNK         0.0815 
    109 H109       33.5691   33.2587   -0.0934 H         1 UNK         0.0815 
    110 H110       28.9664   33.1251   -0.4597 H         1 UNK         0.2987 
    111 H111       27.0514   33.8783    0.2750 H         1 UNK         0.0949 
    112 H112       28.1558   36.7354    0.2292 H         1 UNK         0.0806 
    113 H113       27.4473   35.9069   -1.1573 H         1 UNK         0.0806 
    114 H114       26.4671   36.2595    0.2547 H         1 UNK         0.0806 
    115 H115       29.5614   33.5230    2.1281 H         1 UNK         0.3010 
    116 H116       28.3571   34.5681    4.6694 H         1 UNK         0.0829 
    117 H117       30.5446   35.6089    4.0188 H         1 UNK         0.0813 
    118 H118       30.7121   34.6365    5.4715 H         1 UNK         0.0813 
    119 H119       31.2859   34.0120    3.9300 H         1 UNK         0.0813 
    120 H120       28.9621   31.7553    2.9080 H         1 UNK         0.3038 
    121 H121       29.0147   29.5613    3.2586 H         1 UNK         0.0769 
    122 H122       28.1128   30.0068    6.1494 H         1 UNK         0.0811 
    123 H123       28.0992   28.4934    5.2600 H         1 UNK         0.0811 
    124 H124       27.0331   29.7995    4.7700 H         1 UNK         0.0811 
    125 H125       31.2601   30.8163    3.0741 H         1 UNK         0.3204 
    126 H126       33.1653   30.5454    5.1637 H         1 UNK         0.0748 
    127 H127       34.7652   31.2006    3.3651 H         1 UNK         0.0771 
    128 H128       33.5245   30.9382    2.1464 H         1 UNK         0.0771 
    129 H129       33.3328   32.2143    3.3465 H         1 UNK         0.0771 
    130 H130       32.3398   28.2071    5.5429 H         1 UNK         0.2980 
    131 H131       33.6457   26.0823    4.1054 H         1 UNK         0.0545 
    132 H132       36.3950   27.3353    6.8180 H         1 UNK         0.3459 
    133 H133       34.9502   28.2706    6.5261 H         1 UNK         0.3459 
    134 H134       32.5686   25.8678    6.9540 H         1 UNK         0.0616 
    135 H135       31.4794   26.0453    5.6203 H         1 UNK         0.0616 
    136 H136       30.3326   24.3457    4.6482 H         1 UNK         0.0634 
    137 H137       30.7148   22.6490    4.6399 H         1 UNK         0.0634 
@<TRIPOS>BOND
     1    1    2 1    
     2    1   72 1    
     3    1   73 1    
     4    1   74 1    
     5    2    3 2    
     6    2    4 am   BACKBONE|DICT|INTERRES
     7    4    5 1    
     8    4   75 1    
     9    5    6 1    
    10    5   35 1    
    11    5   76 1    
    12    6    7 1    
    13    6   77 1    
    14    6   78 1    
    15    7    8 1    
    16    8    9 1    
    17    8   79 1    
    18    8   80 1    
    19    9   10 ar   
    20    9   14 ar   
    21   10   11 ar   
    22   10   81 1    
    23   11   12 ar   
    24   11   71 1    
    25   12   13 ar   
    26   12   82 1    
    27   13   14 ar   
    28   13   15 1    
    29   14   83 1    
    30   15   16 1    
    31   15   84 1    
    32   15   85 1    
    33   16   17 1    
    34   17   18 1    
    35   17   86 1    
    36   17   87 1    
    37   18   19 1    
    38   18   37 1    
    39   18   88 1    
    40   19   20 am   BACKBONE|DICT|INTERRES
    41   19   89 1    
    42   20   21 2    
    43   20   22 1    
    44   22   23 1    
    45   22   24 1    
    46   22   90 1    
    47   23   91 1    
    48   23   92 1    
    49   23   93 1    
    50   24   25 am   BACKBONE|DICT|INTERRES
    51   24   94 1    
    52   25   26 2    
    53   25   27 1    
    54   27   28 1    
    55   27   29 1    
    56   27   95 1    
    57   28   96 1    
    58   28   97 1    
    59   28   98 1    
    60   29   30 am   BACKBONE|DICT|INTERRES
    61   29   99 1    
    62   30   31 2    
    63   30   32 1    
    64   32   33 1    
    65   32   34 1    
    66   32  100 1    
    67   33  101 1    
    68   33  102 1    
    69   33  103 1    
    70   34   35 am   BACKBONE|DICT|INTERRES
    71   34  104 1    
    72   35   36 2    
    73   37   38 2    
    74   37   39 am   BACKBONE|DICT|INTERRES
    75   39   40 1    
    76   39  105 1    
    77   40   41 1    
    78   40   42 1    
    79   40  106 1    
    80   41  107 1    
    81   41  108 1    
    82   41  109 1    
    83   42   43 2    
    84   42   44 am   BACKBONE|DICT|INTERRES
    85   44   45 1    
    86   44  110 1    
    87   45   46 1    
    88   45   47 1    
    89   45  111 1    
    90   46  112 1    
    91   46  113 1    
    92   46  114 1    
    93   47   48 2    
    94   47   49 am   BACKBONE|DICT|INTERRES
    95   49   50 1    
    96   49  115 1    
    97   50   51 1    
    98   50   52 1    
    99   50  116 1    
   100   51  117 1    
   101   51  118 1    
   102   51  119 1    
   103   52   53 2    
   104   52   54 am   BACKBONE|DICT|INTERRES
   105   54   55 1    
   106   54  120 1    
   107   55   56 1    
   108   55   57 1    
   109   55  121 1    
   110   56  122 1    
   111   56  123 1    
   112   56  124 1    
   113   57   58 2    
   114   57   59 am   BACKBONE|DICT|INTERRES
   115   59   60 1    
   116   59  125 1    
   117   60   61 1    
   118   60   62 1    
   119   60  126 1    
   120   61  127 1    
   121   61  128 1    
   122   61  129 1    
   123   62   63 2    
   124   62   64 am   BACKBONE|DICT|INTERRES
   125   64   65 1    
   126   64  130 1    
   127   65   66 1    
   128   65   69 1    
   129   65  131 1    
   130   66   67 am   BACKBONE|DICT|INTERRES
   131   66   68 2    
   132   67  132 1    
   133   67  133 1    
   134   69   70 1    
   135   69  134 1    
   136   69  135 1    
   137   70   71 1    
   138   71  136 1    
   139   71  137 1    
@<TRIPOS>SUBSTRUCTURE
     1 UNK         1 GROUP             0       ****    0 ROOT    
