@<TRIPOS>MOLECULE
3R136
137   139    1
SMALL
USER_CHARGES


@<TRIPOS>ATOM
      1 CA         26.2993   23.6826    0.0627 C.3       0 UNK        -0.1979 
      2 C          27.3855   22.8811   -0.6375 C.2       0 UNK         0.4864 
      3 O          27.2190   22.5033   -1.7994 O.2       0 UNK        -0.5359 
      4 N          28.5059   22.6273    0.0500 N.am      1 UNK        -0.4318 
      5 CA         29.6791   21.9161   -0.4699 C.3       1 UNK         0.0824 
      6 C6         30.5126   21.2728    0.6672 C.3       12 UNK        -0.0944 
      7 S7         29.5443   20.0423    1.6032 S.3       12 UNK        -0.2672 
      8 C8         30.2166   20.2348    3.2845 C.3       12 UNK         0.0333 
      9 C9         29.8633   21.5753    3.9174 C.ar      12 UNK        -0.0807 
     10 C10        30.8732   22.4872    4.2428 C.ar      12 UNK        -0.0894 
     11 C11        30.5602   23.6936    4.8754 C.ar      12 UNK        -0.0804 
     12 C12        29.2314   23.9780    5.1964 C.ar      12 UNK        -0.0824 
     13 C13        28.2076   23.1037    4.8265 C.ar      12 UNK        -0.0762 
     14 C14        28.5305   21.8956    4.1992 C.ar      12 UNK        -0.0782 
     15 C15        26.7557   23.4724    5.0923 C.3       12 UNK         0.0230 
     16 S16        26.1306   24.6544    3.8499 S.3       12 UNK        -0.2608 
     17 C17        26.5478   26.2792    4.5775 C.3       12 UNK        -0.0989 
     18 CA         27.7687   26.9779    3.9065 C.3       5 UNK         0.0716 
     19 N          27.6096   27.1622    2.4635 N.am      5 UNK        -0.4135 
     20 C          26.8484   28.0650    1.8369 C.2       4 UNK         0.5031 
     21 O          26.1202   28.8637    2.4301 O.2       4 UNK        -0.5229 
     22 CA         26.9255   28.0858    0.2925 C.3       4 UNK         0.0329 
     23 CB         26.2277   29.3223   -0.3058 C.3       4 UNK        -0.2001 
     24 N          28.2944   28.0188   -0.2412 N.am      4 UNK        -0.4303 
     25 C          29.0901   26.9418   -0.2433 C.2       3 UNK         0.5044 
     26 O          28.7725   25.8598    0.2547 O.2       3 UNK        -0.5152 
     27 CA         30.4866   27.1018   -0.8643 C.3       3 UNK         0.0319 
     28 CB         31.5566   27.1964    0.2356 C.3       3 UNK        -0.2001 
     29 N          30.7830   25.9451   -1.7035 N.am      3 UNK        -0.4354 
     30 C          30.2372   25.6995   -2.8995 C.2       2 UNK         0.4964 
     31 O          29.5813   26.5251   -3.5353 O.2       2 UNK        -0.5047 
     32 CA         30.4063   24.2753   -3.4578 C.3       2 UNK         0.0288 
     33 CB         31.8351   24.0251   -3.9808 C.3       2 UNK        -0.2113 
     34 N          29.9650   23.2424   -2.5075 N.am      2 UNK        -0.4145 
     35 C          30.5163   22.8756   -1.3403 C.2       1 UNK         0.5006 
     36 O          31.5910   23.3122   -0.9215 O.2       1 UNK        -0.5103 
     37 C          28.1968   28.3008    4.5879 C.2       5 UNK         0.5055 
     38 O          29.1581   28.9281    4.1399 O.2       5 UNK        -0.5220 
     39 N          27.4752   28.7209    5.6362 N.am      6 UNK        -0.4450 
     40 CA         27.7327   29.9407    6.4054 C.3       6 UNK         0.0367 
     41 CB         26.8979   29.8971    7.6961 C.3       6 UNK        -0.1929 
     42 C          27.4725   31.2536    5.6406 C.2       6 UNK         0.5070 
     43 O          27.9111   32.3040    6.1096 O.2       6 UNK        -0.5237 
     44 N          26.7684   31.1966    4.4998 N.am      7 UNK        -0.4739 
     45 CA         26.5106   32.3606    3.6456 C.3       7 UNK         0.0276 
     46 CB         25.2377   32.1185    2.8177 C.3       7 UNK        -0.1927 
     47 C          27.6979   32.7087    2.7285 C.2       7 UNK         0.5013 
     48 O          27.7108   33.8038    2.1642 O.2       7 UNK        -0.5193 
     49 N          28.6608   31.7886    2.5782 N.am      8 UNK        -0.4253 
     50 CA         29.8811   31.9924    1.7987 C.3       8 UNK         0.0242 
     51 CB         30.4593   30.6211    1.4248 C.3       8 UNK        -0.2000 
     52 C          30.9203   32.8129    2.5795 C.2       8 UNK         0.4948 
     53 O          30.9038   32.8235    3.8125 O.2       8 UNK        -0.5275 
     54 N          31.8393   33.4507    1.8414 N.am      9 UNK        -0.4246 
     55 CA         32.9619   34.2190    2.3939 C.3       9 UNK         0.0261 
     56 CB         33.5867   35.0757    1.2801 C.3       9 UNK        -0.1959 
     57 C          34.0376   33.3430    3.0653 C.2       9 UNK         0.5033 
     58 O          34.7485   33.8313    3.9452 O.2       9 UNK        -0.5390 
     59 N          34.1358   32.0767    2.6472 N.am      10 UNK        -0.4215 
     60 CA         35.0067   31.0469    3.2005 C.3       10 UNK         0.0240 
     61 CB         36.4104   31.1488    2.5761 C.3       10 UNK        -0.1982 
     62 C          34.3641   29.6869    2.9074 C.2       10 UNK         0.4970 
     63 O          33.5990   29.5766    1.9458 O.2       10 UNK        -0.4916 
     64 N          34.6947   28.6865    3.7286 N.am      11 UNK        -0.4279 
     65 CA         34.1644   27.3157    3.6477 C.3       11 UNK         0.1003 
     66 C          35.2634   26.2270    3.8326 C.2       11 UNK         0.5709 
     67 N          36.5463   26.5635    3.7495 N.am      11 UNK        -0.7358 
     68 O          34.9614   25.0554    4.0425 O.2       11 UNK        -0.4999 
     69 C69        32.9378   27.1408    4.5901 C.3       12 UNK        -0.0954 
     70 S70        31.6787   26.0086    3.9177 S.3       12 UNK        -0.2268 
     71 C71        31.6459   24.7089    5.1893 C.3       12 UNK         0.0203 
     72 H72        26.6548   24.0985    1.0046 H         1 UNK         0.0888 
     73 H73        25.9803   24.5118   -0.5679 H         1 UNK         0.0888 
     74 H74        25.4350   23.0521    0.2690 H         1 UNK         0.0888 
     75 H75        28.6056   22.9989    0.9841 H         1 UNK         0.3017 
     76 H76        29.3392   21.1077   -1.1215 H         1 UNK         0.0873 
     77 H77        31.3909   20.7675    0.2609 H         1 UNK         0.0745 
     78 H78        30.8874   22.0415    1.3454 H         1 UNK         0.0745 
     79 H79        29.8209   19.4351    3.9120 H         1 UNK         0.0705 
     80 H80        31.2976   20.0894    3.2526 H         1 UNK         0.0705 
     81 H81        31.9036   22.2601    4.0050 H         1 UNK         0.1334 
     82 H82        28.9919   24.9022    5.7022 H         1 UNK         0.1417 
     83 H83        27.7465   21.2025    3.9252 H         1 UNK         0.1562 
     84 H84        26.6429   23.8744    6.0999 H         1 UNK         0.0748 
     85 H85        26.1325   22.5775    5.0575 H         1 UNK         0.0748 
     86 H86        26.7189   26.1419    5.6462 H         1 UNK         0.0940 
     87 H87        25.6589   26.9068    4.4879 H         1 UNK         0.0940 
     88 H88        28.6303   26.3214    4.0012 H         1 UNK         0.0703 
     89 H89        28.1641   26.5470    1.8739 H         1 UNK         0.3081 
     90 H90        26.3875   27.2013   -0.0548 H         1 UNK         0.0719 
     91 H91        26.7063   30.2485    0.0155 H         1 UNK         0.0809 
     92 H92        26.2377   29.2973   -1.3956 H         1 UNK         0.0809 
     93 H93        25.1824   29.3716    0.0027 H         1 UNK         0.0809 
     94 H94        28.6432   28.8684   -0.6598 H         1 UNK         0.2990 
     95 H95        30.5179   28.0075   -1.4734 H         1 UNK         0.0690 
     96 H96        31.3425   28.0047    0.9340 H         1 UNK         0.0788 
     97 H97        32.5441   27.3869   -0.1847 H         1 UNK         0.0788 
     98 H98        31.6138   26.2767    0.8195 H         1 UNK         0.0788 
     99 H99        31.2528   25.1664   -1.2501 H         1 UNK         0.2993 
    100 H100       29.7311   24.1936   -4.3112 H         1 UNK         0.0949 
    101 H101       31.9310   23.0258   -4.4052 H         1 UNK         0.0767 
    102 H102       32.0874   24.7372   -4.7674 H         1 UNK         0.0767 
    103 H103       32.5877   24.1310   -3.1995 H         1 UNK         0.0767 
    104 H104       29.0307   22.8809   -2.6779 H         1 UNK         0.3013 
    105 H105       26.6785   28.1734    5.9257 H         1 UNK         0.3121 
    106 H106       28.7888   29.9409    6.6832 H         1 UNK         0.0774 
    107 H107       27.0944   30.7714    8.3182 H         1 UNK         0.0815 
    108 H108       25.8281   29.8833    7.4848 H         1 UNK         0.0815 
    109 H109       27.1354   29.0182    8.2954 H         1 UNK         0.0815 
    110 H110       26.4575   30.2979    4.1486 H         1 UNK         0.2987 
    111 H111       26.3312   33.2298    4.2823 H         1 UNK         0.0949 
    112 H112       25.3697   31.3153    2.0935 H         1 UNK         0.0806 
    113 H113       24.3899   31.8634    3.4534 H         1 UNK         0.0806 
    114 H114       24.9642   33.0135    2.2576 H         1 UNK         0.0806 
    115 H115       28.6106   30.9396    3.1277 H         1 UNK         0.3010 
    116 H116       29.6252   32.5264    0.8809 H         1 UNK         0.0829 
    117 H117       29.7165   30.0073    0.9212 H         1 UNK         0.0813 
    118 H118       31.3110   30.7192    0.7509 H         1 UNK         0.0813 
    119 H119       30.8013   30.0743    2.3051 H         1 UNK         0.0813 
    120 H120       31.7827   33.3940    0.8342 H         1 UNK         0.3038 
    121 H121       32.5664   34.8912    3.1586 H         1 UNK         0.0769 
    122 H122       32.8572   35.7612    0.8486 H         1 UNK         0.0811 
    123 H123       33.9905   34.4611    0.4745 H         1 UNK         0.0811 
    124 H124       34.4065   35.6818    1.6686 H         1 UNK         0.0811 
    125 H125       33.4889   31.7301    1.9496 H         1 UNK         0.3204 
    126 H126       35.0721   31.1764    4.2831 H         1 UNK         0.0748 
    127 H127       36.8679   32.1162    2.7843 H         1 UNK         0.0771 
    128 H128       37.0766   30.3845    2.9775 H         1 UNK         0.0771 
    129 H129       36.3785   31.0209    1.4933 H         1 UNK         0.0771 
    130 H130       35.3365   28.8594    4.4895 H         1 UNK         0.2980 
    131 H131       33.8243   27.1594    2.6221 H         1 UNK         0.0545 
    132 H132       37.2455   25.8472    3.8681 H         1 UNK         0.3459 
    133 H133       36.8255   27.5042    3.5240 H         1 UNK         0.3459 
    134 H134       32.4277   28.0958    4.7281 H         1 UNK         0.0616 
    135 H135       33.2469   26.8283    5.5891 H         1 UNK         0.0616 
    136 H136       31.4620   25.1577    6.1665 H         1 UNK         0.0634 
    137 H137       32.6223   24.2255    5.2434 H         1 UNK         0.0634 
@<TRIPOS>BOND
     1    1    2 1    
     2    1   72 1    
     3    1   73 1    
     4    1   74 1    
     5    2    3 2    
     6    2    4 am   BACKBONE|DICT|INTERRES
     7    4    5 1    
     8    4   75 1    
     9    5    6 1    
    10    5   35 1    
    11    5   76 1    
    12    6    7 1    
    13    6   77 1    
    14    6   78 1    
    15    7    8 1    
    16    8    9 1    
    17    8   79 1    
    18    8   80 1    
    19    9   10 ar   
    20    9   14 ar   
    21   10   11 ar   
    22   10   81 1    
    23   11   12 ar   
    24   11   71 1    
    25   12   13 ar   
    26   12   82 1    
    27   13   14 ar   
    28   13   15 1    
    29   14   83 1    
    30   15   16 1    
    31   15   84 1    
    32   15   85 1    
    33   16   17 1    
    34   17   18 1    
    35   17   86 1    
    36   17   87 1    
    37   18   19 1    
    38   18   37 1    
    39   18   88 1    
    40   19   20 am   BACKBONE|DICT|INTERRES
    41   19   89 1    
    42   20   21 2    
    43   20   22 1    
    44   22   23 1    
    45   22   24 1    
    46   22   90 1    
    47   23   91 1    
    48   23   92 1    
    49   23   93 1    
    50   24   25 am   BACKBONE|DICT|INTERRES
    51   24   94 1    
    52   25   26 2    
    53   25   27 1    
    54   27   28 1    
    55   27   29 1    
    56   27   95 1    
    57   28   96 1    
    58   28   97 1    
    59   28   98 1    
    60   29   30 am   BACKBONE|DICT|INTERRES
    61   29   99 1    
    62   30   31 2    
    63   30   32 1    
    64   32   33 1    
    65   32   34 1    
    66   32  100 1    
    67   33  101 1    
    68   33  102 1    
    69   33  103 1    
    70   34   35 am   BACKBONE|DICT|INTERRES
    71   34  104 1    
    72   35   36 2    
    73   37   38 2    
    74   37   39 am   BACKBONE|DICT|INTERRES
    75   39   40 1    
    76   39  105 1    
    77   40   41 1    
    78   40   42 1    
    79   40  106 1    
    80   41  107 1    
    81   41  108 1    
    82   41  109 1    
    83   42   43 2    
    84   42   44 am   BACKBONE|DICT|INTERRES
    85   44   45 1    
    86   44  110 1    
    87   45   46 1    
    88   45   47 1    
    89   45  111 1    
    90   46  112 1    
    91   46  113 1    
    92   46  114 1    
    93   47   48 2    
    94   47   49 am   BACKBONE|DICT|INTERRES
    95   49   50 1    
    96   49  115 1    
    97   50   51 1    
    98   50   52 1    
    99   50  116 1    
   100   51  117 1    
   101   51  118 1    
   102   51  119 1    
   103   52   53 2    
   104   52   54 am   BACKBONE|DICT|INTERRES
   105   54   55 1    
   106   54  120 1    
   107   55   56 1    
   108   55   57 1    
   109   55  121 1    
   110   56  122 1    
   111   56  123 1    
   112   56  124 1    
   113   57   58 2    
   114   57   59 am   BACKBONE|DICT|INTERRES
   115   59   60 1    
   116   59  125 1    
   117   60   61 1    
   118   60   62 1    
   119   60  126 1    
   120   61  127 1    
   121   61  128 1    
   122   61  129 1    
   123   62   63 2    
   124   62   64 am   BACKBONE|DICT|INTERRES
   125   64   65 1    
   126   64  130 1    
   127   65   66 1    
   128   65   69 1    
   129   65  131 1    
   130   66   67 am   BACKBONE|DICT|INTERRES
   131   66   68 2    
   132   67  132 1    
   133   67  133 1    
   134   69   70 1    
   135   69  134 1    
   136   69  135 1    
   137   70   71 1    
   138   71  136 1    
   139   71  137 1    
@<TRIPOS>SUBSTRUCTURE
     1 UNK         1 GROUP             0       ****    0 ROOT    
