@<TRIPOS>MOLECULE
3R136
137   139    1
SMALL
USER_CHARGES


@<TRIPOS>ATOM
      1 CA         26.2737   22.2616    3.4245 C.3       0 UNK        -0.1979 
      2 C          26.8491   21.6821    2.1416 C.2       0 UNK         0.4864 
      3 O          26.0963   21.1614    1.3175 O.2       0 UNK        -0.5359 
      4 N          28.1768   21.7573    1.9717 N.am      1 UNK        -0.4318 
      5 CA         28.9115   21.1936    0.8286 C.3       1 UNK         0.0824 
      6 C6         30.4443   21.1762    1.0629 C.3       12 UNK        -0.0944 
      7 S7         30.9223   20.3922    2.6424 S.3       12 UNK        -0.2672 
      8 C8         32.4774   21.2572    3.0493 C.3       12 UNK         0.0333 
      9 C9         32.2880   22.7602    3.2125 C.ar      12 UNK        -0.0807 
     10 C10        32.9010   23.6482    2.3220 C.ar      12 UNK        -0.0894 
     11 C11        32.7047   25.0266    2.4465 C.ar      12 UNK        -0.0804 
     12 C12        31.8909   25.5177    3.4694 C.ar      12 UNK        -0.0824 
     13 C13        31.2757   24.6397    4.3660 C.ar      12 UNK        -0.0762 
     14 C14        31.4882   23.2635    4.2429 C.ar      12 UNK        -0.0782 
     15 C15        30.3497   25.1786    5.4437 C.3       12 UNK         0.0230 
     16 S16        28.5986   24.8136    5.0880 S.3       12 UNK        -0.2608 
     17 C17        28.3753   25.4417    3.3856 C.3       12 UNK        -0.0989 
     18 CA         28.3809   26.9883    3.2749 C.3       5 UNK         0.0716 
     19 N          28.7619   27.4019    1.9215 N.am      5 UNK        -0.4135 
     20 C          29.5254   28.4596    1.6049 C.2       4 UNK         0.5031 
     21 O          30.0998   29.1697    2.4302 O.2       4 UNK        -0.5229 
     22 CA         29.6832   28.8074    0.1082 C.3       4 UNK         0.0329 
     23 CB         31.0605   28.3674   -0.4116 C.3       4 UNK        -0.2001 
     24 N          28.6506   28.2408   -0.7614 N.am      4 UNK        -0.4303 
     25 C          27.3389   28.4971   -0.6723 C.2       3 UNK         0.5044 
     26 O          26.8654   29.3220    0.1077 O.2       3 UNK        -0.5152 
     27 CA         26.3937   27.6201   -1.5173 C.3       3 UNK         0.0319 
     28 CB         25.9964   28.3525   -2.8079 C.3       3 UNK        -0.2001 
     29 N          26.9389   26.2949   -1.8530 N.am      3 UNK        -0.4354 
     30 C          27.3608   25.3818   -0.9650 C.2       2 UNK         0.4964 
     31 O          27.3215   25.5493    0.2585 O.2       2 UNK        -0.5047 
     32 CA         28.0048   24.1125   -1.5370 C.3       2 UNK         0.0288 
     33 CB         29.3106   24.4499   -2.2883 C.3       2 UNK        -0.2113 
     34 N          28.2897   23.2106   -0.4261 N.am      2 UNK        -0.4145 
     35 C          28.6002   21.9114   -0.5029 C.2       1 UNK         0.5006 
     36 O          28.6627   21.2823   -1.5610 O.2       1 UNK        -0.5103 
     37 C          27.0235   27.5935    3.7060 C.2       5 UNK         0.5055 
     38 O          26.7318   27.6117    4.9029 O.2       5 UNK        -0.5220 
     39 N          26.2131   28.0863    2.7532 N.am      6 UNK        -0.4450 
     40 CA         25.0314   28.9083    3.0429 C.3       6 UNK         0.0367 
     41 CB         24.0468   28.8689    1.8623 C.3       6 UNK        -0.1929 
     42 C          25.4537   30.3502    3.3763 C.2       6 UNK         0.5070 
     43 O          24.8639   30.9722    4.2607 O.2       6 UNK        -0.5237 
     44 N          26.5078   30.8278    2.6993 N.am      7 UNK        -0.4739 
     45 CA         27.3213   31.9749    3.1049 C.3       7 UNK         0.0276 
     46 CB         28.2102   32.3809    1.9173 C.3       7 UNK        -0.1927 
     47 C          28.1801   31.6402    4.3429 C.2       7 UNK         0.5013 
     48 O          28.2766   30.4773    4.7413 O.2       7 UNK        -0.5193 
     49 N          28.8176   32.6599    4.9303 N.am      8 UNK        -0.4253 
     50 CA         29.6548   32.5497    6.1318 C.3       8 UNK         0.0242 
     51 CB         29.7895   33.9472    6.7675 C.3       8 UNK        -0.2000 
     52 C          31.0242   31.8818    5.8683 C.2       8 UNK         0.4948 
     53 O          32.0596   32.5055    6.1083 O.2       8 UNK        -0.5275 
     54 N          30.9972   30.6305    5.3819 N.am      9 UNK        -0.4246 
     55 CA         32.1331   29.7672    5.0286 C.3       9 UNK         0.0261 
     56 CB         32.8899   29.3142    6.2942 C.3       9 UNK        -0.1959 
     57 C          33.0493   30.4304    3.9844 C.2       9 UNK         0.5033 
     58 O          34.2372   30.6450    4.2378 O.2       9 UNK        -0.5390 
     59 N          32.4620   30.7713    2.8291 N.am      10 UNK        -0.4215 
     60 CA         33.0773   31.6019    1.7856 C.3       10 UNK         0.0240 
     61 CB         32.0179   31.9932    0.7433 C.3       10 UNK        -0.1982 
     62 C          34.3239   30.9991    1.1098 C.2       10 UNK         0.4970 
     63 O          35.0774   31.7476    0.4858 O.2       10 UNK        -0.4916 
     64 N          34.5374   29.6845    1.2539 N.am      11 UNK        -0.4279 
     65 CA         35.7814   29.0040    0.8658 C.3       11 UNK         0.1003 
     66 C          36.9897   29.2715    1.8143 C.2       11 UNK         0.5709 
     67 N          36.8062   29.8683    2.9876 N.am      11 UNK        -0.7358 
     68 O          38.1224   28.9445    1.4672 O.2       11 UNK        -0.4999 
     69 C69        35.5580   27.4916    0.6029 C.3       12 UNK        -0.0954 
     70 S70        34.9692   26.5524    2.0556 S.3       12 UNK        -0.2268 
     71 C71        33.3507   25.9847    1.4617 C.3       12 UNK         0.0203 
     72 H72        27.0493   22.4508    4.1655 H         1 UNK         0.0888 
     73 H73        25.7561   23.1978    3.2177 H         1 UNK         0.0888 
     74 H74        25.5579   21.5667    3.8629 H         1 UNK         0.0888 
     75 H75        28.7518   22.1632    2.6966 H         1 UNK         0.3017 
     76 H76        28.5806   20.1589    0.7144 H         1 UNK         0.0873 
     77 H77        30.9459   20.6361    0.2575 H         1 UNK         0.0745 
     78 H78        30.8343   22.1943    1.0308 H         1 UNK         0.0745 
     79 H79        32.8775   20.8460    3.9770 H         1 UNK         0.0705 
     80 H80        33.2146   21.0393    2.2748 H         1 UNK         0.0705 
     81 H81        33.5234   23.2676    1.5234 H         1 UNK         0.1334 
     82 H82        31.7241   26.5826    3.5557 H         1 UNK         0.1417 
     83 H83        31.0041   22.5816    4.9292 H         1 UNK         0.1562 
     84 H84        30.4778   26.2552    5.5650 H         1 UNK         0.0748 
     85 H85        30.6146   24.7336    6.4039 H         1 UNK         0.0748 
     86 H86        27.4472   25.0316    2.9839 H         1 UNK         0.0940 
     87 H87        29.1600   25.0120    2.7620 H         1 UNK         0.0940 
     88 H88        29.1276   27.3827    3.9663 H         1 UNK         0.0703 
     89 H89        28.3481   26.8517    1.1738 H         1 UNK         0.3081 
     90 H90        29.6139   29.8932    0.0260 H         1 UNK         0.0719 
     91 H91        31.1529   27.2811   -0.4365 H         1 UNK         0.0809 
     92 H92        31.2396   28.7404   -1.4202 H         1 UNK         0.0809 
     93 H93        31.8626   28.7535    0.2174 H         1 UNK         0.0809 
     94 H94        28.9526   27.5540   -1.4364 H         1 UNK         0.2990 
     95 H95        25.4912   27.4594   -0.9239 H         1 UNK         0.0690 
     96 H96        25.2473   27.7925   -3.3682 H         1 UNK         0.0788 
     97 H97        26.8544   28.5152   -3.4614 H         1 UNK         0.0788 
     98 H98        25.5661   29.3302   -2.5850 H         1 UNK         0.0788 
     99 H99        27.0135   26.0797   -2.8374 H         1 UNK         0.2993 
    100 H100       27.2918   23.6347   -2.2121 H         1 UNK         0.0949 
    101 H101       29.7784   23.5548   -2.6984 H         1 UNK         0.0767 
    102 H102       29.1288   25.1208   -3.1286 H         1 UNK         0.0767 
    103 H103       30.0379   24.9319   -1.6334 H         1 UNK         0.0767 
    104 H104       28.1918   23.6439    0.4836 H         1 UNK         0.3013 
    105 H105       26.5245   28.0788    1.7912 H         1 UNK         0.3121 
    106 H106       24.5201   28.4965    3.9159 H         1 UNK         0.0774 
    107 H107       24.4486   29.3512    0.9718 H         1 UNK         0.0815 
    108 H108       23.1227   29.3890    2.1174 H         1 UNK         0.0815 
    109 H109       23.7804   27.8450    1.6002 H         1 UNK         0.0815 
    110 H110       26.8805   30.2566    1.9500 H         1 UNK         0.2987 
    111 H111       26.6564   32.8032    3.3588 H         1 UNK         0.0949 
    112 H112       28.9190   31.5935    1.6620 H         1 UNK         0.0806 
    113 H113       27.6139   32.5925    1.0294 H         1 UNK         0.0806 
    114 H114       28.7862   33.2799    2.1392 H         1 UNK         0.0806 
    115 H115       28.7264   33.5838    4.5326 H         1 UNK         0.3010 
    116 H116       29.1332   31.9153    6.8523 H         1 UNK         0.0829 
    117 H117       30.2952   34.6473    6.1012 H         1 UNK         0.0813 
    118 H118       28.8146   34.3657    7.0185 H         1 UNK         0.0813 
    119 H119       30.3662   33.9025    7.6924 H         1 UNK         0.0813 
    120 H120       30.0737   30.2615    5.1574 H         1 UNK         0.3038 
    121 H121       31.7147   28.8755    4.5606 H         1 UNK         0.0769 
    122 H122       33.6883   28.6157    6.0404 H         1 UNK         0.0811 
    123 H123       33.3476   30.1553    6.8161 H         1 UNK         0.0811 
    124 H124       32.2250   28.8070    6.9932 H         1 UNK         0.0811 
    125 H125       31.5006   30.4700    2.6838 H         1 UNK         0.3204 
    126 H126       33.4106   32.5198    2.2746 H         1 UNK         0.0748 
    127 H127       32.4372   32.6684   -0.0040 H         1 UNK         0.0771 
    128 H128       31.6311   31.1263    0.2118 H         1 UNK         0.0771 
    129 H129       31.1788   32.5115    1.2062 H         1 UNK         0.0771 
    130 H130       33.8943   29.1466    1.8133 H         1 UNK         0.2980 
    131 H131       36.0845   29.4292   -0.0930 H         1 UNK         0.0545 
    132 H132       35.8797   30.1358    3.3066 H         1 UNK         0.3459 
    133 H133       37.6031   30.0364    3.5800 H         1 UNK         0.3459 
    134 H134       34.8490   27.3732   -0.2177 H         1 UNK         0.0616 
    135 H135       36.4814   27.0268    0.2527 H         1 UNK         0.0616 
    136 H136       33.4614   25.5036    0.4886 H         1 UNK         0.0634 
    137 H137       32.7080   26.8508    1.3150 H         1 UNK         0.0634 
@<TRIPOS>BOND
     1    1    2 1    
     2    1   72 1    
     3    1   73 1    
     4    1   74 1    
     5    2    3 2    
     6    2    4 am   BACKBONE|DICT|INTERRES
     7    4    5 1    
     8    4   75 1    
     9    5    6 1    
    10    5   35 1    
    11    5   76 1    
    12    6    7 1    
    13    6   77 1    
    14    6   78 1    
    15    7    8 1    
    16    8    9 1    
    17    8   79 1    
    18    8   80 1    
    19    9   10 ar   
    20    9   14 ar   
    21   10   11 ar   
    22   10   81 1    
    23   11   12 ar   
    24   11   71 1    
    25   12   13 ar   
    26   12   82 1    
    27   13   14 ar   
    28   13   15 1    
    29   14   83 1    
    30   15   16 1    
    31   15   84 1    
    32   15   85 1    
    33   16   17 1    
    34   17   18 1    
    35   17   86 1    
    36   17   87 1    
    37   18   19 1    
    38   18   37 1    
    39   18   88 1    
    40   19   20 am   BACKBONE|DICT|INTERRES
    41   19   89 1    
    42   20   21 2    
    43   20   22 1    
    44   22   23 1    
    45   22   24 1    
    46   22   90 1    
    47   23   91 1    
    48   23   92 1    
    49   23   93 1    
    50   24   25 am   BACKBONE|DICT|INTERRES
    51   24   94 1    
    52   25   26 2    
    53   25   27 1    
    54   27   28 1    
    55   27   29 1    
    56   27   95 1    
    57   28   96 1    
    58   28   97 1    
    59   28   98 1    
    60   29   30 am   BACKBONE|DICT|INTERRES
    61   29   99 1    
    62   30   31 2    
    63   30   32 1    
    64   32   33 1    
    65   32   34 1    
    66   32  100 1    
    67   33  101 1    
    68   33  102 1    
    69   33  103 1    
    70   34   35 am   BACKBONE|DICT|INTERRES
    71   34  104 1    
    72   35   36 2    
    73   37   38 2    
    74   37   39 am   BACKBONE|DICT|INTERRES
    75   39   40 1    
    76   39  105 1    
    77   40   41 1    
    78   40   42 1    
    79   40  106 1    
    80   41  107 1    
    81   41  108 1    
    82   41  109 1    
    83   42   43 2    
    84   42   44 am   BACKBONE|DICT|INTERRES
    85   44   45 1    
    86   44  110 1    
    87   45   46 1    
    88   45   47 1    
    89   45  111 1    
    90   46  112 1    
    91   46  113 1    
    92   46  114 1    
    93   47   48 2    
    94   47   49 am   BACKBONE|DICT|INTERRES
    95   49   50 1    
    96   49  115 1    
    97   50   51 1    
    98   50   52 1    
    99   50  116 1    
   100   51  117 1    
   101   51  118 1    
   102   51  119 1    
   103   52   53 2    
   104   52   54 am   BACKBONE|DICT|INTERRES
   105   54   55 1    
   106   54  120 1    
   107   55   56 1    
   108   55   57 1    
   109   55  121 1    
   110   56  122 1    
   111   56  123 1    
   112   56  124 1    
   113   57   58 2    
   114   57   59 am   BACKBONE|DICT|INTERRES
   115   59   60 1    
   116   59  125 1    
   117   60   61 1    
   118   60   62 1    
   119   60  126 1    
   120   61  127 1    
   121   61  128 1    
   122   61  129 1    
   123   62   63 2    
   124   62   64 am   BACKBONE|DICT|INTERRES
   125   64   65 1    
   126   64  130 1    
   127   65   66 1    
   128   65   69 1    
   129   65  131 1    
   130   66   67 am   BACKBONE|DICT|INTERRES
   131   66   68 2    
   132   67  132 1    
   133   67  133 1    
   134   69   70 1    
   135   69  134 1    
   136   69  135 1    
   137   70   71 1    
   138   71  136 1    
   139   71  137 1    
@<TRIPOS>SUBSTRUCTURE
     1 UNK         1 GROUP             0       ****    0 ROOT    
