@<TRIPOS>MOLECULE
3R136
137   139    1
SMALL
USER_CHARGES


@<TRIPOS>ATOM
      1 CA         32.0799   21.1909   -1.4009 C.3       0 UNK        -0.1979 
      2 C          31.3882   22.5327   -1.5920 C.2       0 UNK         0.4864 
      3 O          31.5864   23.1831   -2.6195 O.2       0 UNK        -0.5359 
      4 N          30.5847   22.9538   -0.6078 N.am      1 UNK        -0.4318 
      5 CA         29.7775   24.1743   -0.6543 C.3       1 UNK         0.0824 
      6 C6         29.4215   24.6753    0.7722 C.3       12 UNK        -0.0944 
      7 S7         28.4266   23.5097    1.7719 S.3       12 UNK        -0.2672 
      8 C8         29.6327   22.9166    3.0040 C.3       12 UNK         0.0333 
      9 C9         30.0094   24.0086    3.9937 C.ar      12 UNK        -0.0807 
     10 C10        31.3006   24.5473    4.0008 C.ar      12 UNK        -0.0894 
     11 C11        31.6353   25.5786    4.8839 C.ar      12 UNK        -0.0804 
     12 C12        30.6555   26.0791    5.7503 C.ar      12 UNK        -0.0824 
     13 C13        29.3693   25.5335    5.7693 C.ar      12 UNK        -0.0762 
     14 C14        29.0571   24.4865    4.8984 C.ar      12 UNK        -0.0782 
     15 C15        28.3185   26.0828    6.7259 C.3       12 UNK         0.0230 
     16 S16        26.8852   26.8002    5.8567 S.3       12 UNK        -0.2608 
     17 C17        27.6736   28.0552    4.7894 C.3       12 UNK        -0.0989 
     18 CA         27.7797   27.5844    3.3112 C.3       5 UNK         0.0716 
     19 N          26.4771   27.2189    2.7291 N.am      5 UNK        -0.4135 
     20 C          25.4580   28.0484    2.4602 C.2       4 UNK         0.5031 
     21 O          25.5198   29.2692    2.6159 O.2       4 UNK        -0.5229 
     22 CA         24.1538   27.4219    1.9206 C.3       4 UNK         0.0329 
     23 CB         23.2974   28.4399    1.1437 C.3       4 UNK        -0.2001 
     24 N          24.3564   26.2460    1.0681 N.am      4 UNK        -0.4303 
     25 C          24.5949   24.9968    1.4807 C.2       3 UNK         0.5044 
     26 O          24.8018   24.7045    2.6577 O.2       3 UNK        -0.5152 
     27 CA         24.6155   23.8897    0.4099 C.3       3 UNK         0.0319 
     28 CB         23.1895   23.5541   -0.0682 C.3       3 UNK        -0.2001 
     29 N          25.5157   24.1417   -0.7240 N.am      3 UNK        -0.4354 
     30 C          25.4766   25.1061   -1.6557 C.2       2 UNK         0.4964 
     31 O          24.6058   25.9770   -1.7024 O.2       2 UNK        -0.5047 
     32 CA         26.6353   25.1179   -2.6773 C.3       2 UNK         0.0288 
     33 CB         26.5894   26.3428   -3.6111 C.3       2 UNK        -0.2113 
     34 N          27.9420   25.0755   -2.0102 N.am      2 UNK        -0.4145 
     35 C          28.5137   23.9694   -1.5151 C.2       1 UNK         0.5006 
     36 O          28.0269   22.8425   -1.6476 O.2       1 UNK        -0.5103 
     37 C          28.5843   28.5712    2.4320 C.2       5 UNK         0.5055 
     38 O          29.3660   29.3712    2.9501 O.2       5 UNK        -0.5220 
     39 N          28.3850   28.4976    1.1077 N.am      6 UNK        -0.4450 
     40 CA         28.9660   29.4104    0.1189 C.3       6 UNK         0.0367 
     41 CB         28.3052   29.1605   -1.2460 C.3       6 UNK        -0.1929 
     42 C          30.4974   29.3285   -0.0070 C.2       6 UNK         0.5070 
     43 O          31.1074   30.3056   -0.4419 O.2       6 UNK        -0.5237 
     44 N          31.0872   28.1834    0.3717 N.am      7 UNK        -0.4739 
     45 CA         32.5274   27.9072    0.3564 C.3       7 UNK         0.0276 
     46 CB         32.7804   26.4757    0.8589 C.3       7 UNK        -0.1927 
     47 C          33.3104   28.9300    1.1944 C.2       7 UNK         0.5013 
     48 O          33.2691   28.8668    2.4243 O.2       7 UNK        -0.5193 
     49 N          33.9439   29.8884    0.5027 N.am      8 UNK        -0.4253 
     50 CA         34.6807   31.0384    1.0422 C.3       8 UNK         0.0242 
     51 CB         35.9930   30.5657    1.7031 C.3       8 UNK        -0.2000 
     52 C          33.8454   31.9521    1.9676 C.2       8 UNK         0.4948 
     53 O          34.4309   32.6672    2.7808 O.2       8 UNK        -0.5275 
     54 N          32.5084   31.9145    1.8257 N.am      9 UNK        -0.4246 
     55 CA         31.4981   32.5600    2.6743 C.3       9 UNK         0.0261 
     56 CB         31.5296   34.0925    2.4954 C.3       9 UNK        -0.1959 
     57 C          31.6376   32.1290    4.1484 C.2       9 UNK         0.5033 
     58 O          32.1930   32.8720    4.9605 O.2       9 UNK        -0.5390 
     59 N          31.1521   30.9172    4.4513 N.am      10 UNK        -0.4215 
     60 CA         31.2271   30.2317    5.7463 C.3       10 UNK         0.0240 
     61 CB         30.3936   30.9632    6.8201 C.3       10 UNK        -0.1982 
     62 C          32.6727   29.9289    6.1850 C.2       10 UNK         0.4970 
     63 O          33.0314   30.1562    7.3418 O.2       10 UNK        -0.4916 
     64 N          33.4565   29.3874    5.2453 N.am      11 UNK        -0.4279 
     65 CA         34.8201   28.8606    5.4180 C.3       11 UNK         0.1003 
     66 C          35.9174   29.9558    5.5830 C.2       11 UNK         0.5709 
     67 N          35.6354   31.2292    5.3382 N.am      11 UNK        -0.7358 
     68 O          37.0601   29.6444    5.9111 O.2       11 UNK        -0.4999 
     69 C69        34.9435   27.7455    6.5047 C.3       12 UNK        -0.0954 
     70 S70        33.7081   26.3906    6.5598 S.3       12 UNK        -0.2268 
     71 C71        33.0399   26.1757    4.8710 C.3       12 UNK         0.0203 
     72 H72        33.1615   21.3171   -1.4411 H         1 UNK         0.0888 
     73 H73        31.8273   20.7345   -0.4440 H         1 UNK         0.0888 
     74 H74        31.7868   20.5021   -2.1929 H         1 UNK         0.0888 
     75 H75        30.4097   22.3533    0.1844 H         1 UNK         0.3017 
     76 H76        30.3744   24.9508   -1.1383 H         1 UNK         0.0873 
     77 H77        28.8699   25.6141    0.7162 H         1 UNK         0.0745 
     78 H78        30.3372   24.9133    1.3116 H         1 UNK         0.0745 
     79 H79        30.5147   22.5267    2.4940 H         1 UNK         0.0705 
     80 H80        29.1966   22.0774    3.5478 H         1 UNK         0.0705 
     81 H81        32.0427   24.1709    3.3099 H         1 UNK         0.1334 
     82 H82        30.9002   26.8906    6.4213 H         1 UNK         0.1417 
     83 H83        28.0587   24.0696    4.8976 H         1 UNK         0.1562 
     84 H84        28.7469   26.8411    7.3833 H         1 UNK         0.0748 
     85 H85        27.9711   25.2770    7.3740 H         1 UNK         0.0748 
     86 H86        28.6570   28.2903    5.1969 H         1 UNK         0.0940 
     87 H87        27.0965   28.9790    4.8567 H         1 UNK         0.0940 
     88 H88        28.3695   26.6680    3.2994 H         1 UNK         0.0703 
     89 H89        26.2953   26.2260    2.6385 H         1 UNK         0.3081 
     90 H90        23.5801   27.1101    2.7960 H         1 UNK         0.0719 
     91 H91        23.8242   28.8213    0.2681 H         1 UNK         0.0809 
     92 H92        22.3619   27.9947    0.8044 H         1 UNK         0.0809 
     93 H93        23.0351   29.2955    1.7675 H         1 UNK         0.0809 
     94 H94        24.2644   26.3834    0.0635 H         1 UNK         0.2990 
     95 H95        25.0114   22.9976    0.8984 H         1 UNK         0.0690 
     96 H96        23.1917   22.7047   -0.7513 H         1 UNK         0.0788 
     97 H97        22.7191   24.3937   -0.5808 H         1 UNK         0.0788 
     98 H98        22.5490   23.2898    0.7744 H         1 UNK         0.0788 
     99 H99        26.2966   23.4960   -0.7926 H         1 UNK         0.2993 
    100 H100       26.5229   24.2253   -3.2972 H         1 UNK         0.0949 
    101 H101       27.4064   26.3238   -4.3327 H         1 UNK         0.0767 
    102 H102       25.6590   26.3636   -4.1804 H         1 UNK         0.0767 
    103 H103       26.6509   27.2798   -3.0568 H         1 UNK         0.0767 
    104 H104       28.3922   25.9652   -1.8604 H         1 UNK         0.3013 
    105 H105       27.6987   27.8394    0.7715 H         1 UNK         0.3121 
    106 H106       28.7242   30.4284    0.4323 H         1 UNK         0.0774 
    107 H107       28.6654   29.8747   -1.9880 H         1 UNK         0.0815 
    108 H108       28.5261   28.1632   -1.6248 H         1 UNK         0.0815 
    109 H109       27.2219   29.2726   -1.1931 H         1 UNK         0.0815 
    110 H110       30.4994   27.4694    0.7705 H         1 UNK         0.2987 
    111 H111       32.8705   27.9656   -0.6788 H         1 UNK         0.0949 
    112 H112       33.8494   26.2680    0.9230 H         1 UNK         0.0806 
    113 H113       32.3609   26.3186    1.8526 H         1 UNK         0.0806 
    114 H114       32.3527   25.7344    0.1849 H         1 UNK         0.0806 
    115 H115       33.8477   29.8771   -0.5039 H         1 UNK         0.3010 
    116 H116       34.9490   31.6574    0.1848 H         1 UNK         0.0829 
    117 H117       36.5980   29.9826    1.0091 H         1 UNK         0.0813 
    118 H118       36.6018   31.4103    2.0282 H         1 UNK         0.0813 
    119 H119       35.8011   29.9471    2.5788 H         1 UNK         0.0813 
    120 H120       32.1399   31.3035    1.1038 H         1 UNK         0.3038 
    121 H121       30.5258   32.2086    2.3243 H         1 UNK         0.0769 
    122 H122       30.7456   34.5673    3.0863 H         1 UNK         0.0811 
    123 H123       31.3678   34.3727    1.4547 H         1 UNK         0.0811 
    124 H124       32.4796   34.5230    2.8138 H         1 UNK         0.0811 
    125 H125       30.6667   30.3895    3.7248 H         1 UNK         0.3204 
    126 H126       30.7637   29.2580    5.5886 H         1 UNK         0.0748 
    127 H127       30.3496   30.3819    7.7419 H         1 UNK         0.0771 
    128 H128       30.8166   31.9365    7.0703 H         1 UNK         0.0771 
    129 H129       29.3675   31.1177    6.4863 H         1 UNK         0.0771 
    130 H130       33.0992   29.2913    4.2981 H         1 UNK         0.2980 
    131 H131       35.0563   28.3907    4.4634 H         1 UNK         0.0545 
    132 H132       36.3607   31.9209    5.4342 H         1 UNK         0.3459 
    133 H133       34.7180   31.5070    5.0212 H         1 UNK         0.3459 
    134 H134       35.9189   27.2644    6.4151 H         1 UNK         0.0616 
    135 H135       34.9396   28.2030    7.4955 H         1 UNK         0.0616 
    136 H136       32.9827   27.1116    4.3272 H         1 UNK         0.0634 
    137 H137       33.7272   25.5407    4.3105 H         1 UNK         0.0634 
@<TRIPOS>BOND
     1    1    2 1    
     2    1   72 1    
     3    1   73 1    
     4    1   74 1    
     5    2    3 2    
     6    2    4 am   BACKBONE|DICT|INTERRES
     7    4    5 1    
     8    4   75 1    
     9    5    6 1    
    10    5   35 1    
    11    5   76 1    
    12    6    7 1    
    13    6   77 1    
    14    6   78 1    
    15    7    8 1    
    16    8    9 1    
    17    8   79 1    
    18    8   80 1    
    19    9   10 ar   
    20    9   14 ar   
    21   10   11 ar   
    22   10   81 1    
    23   11   12 ar   
    24   11   71 1    
    25   12   13 ar   
    26   12   82 1    
    27   13   14 ar   
    28   13   15 1    
    29   14   83 1    
    30   15   16 1    
    31   15   84 1    
    32   15   85 1    
    33   16   17 1    
    34   17   18 1    
    35   17   86 1    
    36   17   87 1    
    37   18   19 1    
    38   18   37 1    
    39   18   88 1    
    40   19   20 am   BACKBONE|DICT|INTERRES
    41   19   89 1    
    42   20   21 2    
    43   20   22 1    
    44   22   23 1    
    45   22   24 1    
    46   22   90 1    
    47   23   91 1    
    48   23   92 1    
    49   23   93 1    
    50   24   25 am   BACKBONE|DICT|INTERRES
    51   24   94 1    
    52   25   26 2    
    53   25   27 1    
    54   27   28 1    
    55   27   29 1    
    56   27   95 1    
    57   28   96 1    
    58   28   97 1    
    59   28   98 1    
    60   29   30 am   BACKBONE|DICT|INTERRES
    61   29   99 1    
    62   30   31 2    
    63   30   32 1    
    64   32   33 1    
    65   32   34 1    
    66   32  100 1    
    67   33  101 1    
    68   33  102 1    
    69   33  103 1    
    70   34   35 am   BACKBONE|DICT|INTERRES
    71   34  104 1    
    72   35   36 2    
    73   37   38 2    
    74   37   39 am   BACKBONE|DICT|INTERRES
    75   39   40 1    
    76   39  105 1    
    77   40   41 1    
    78   40   42 1    
    79   40  106 1    
    80   41  107 1    
    81   41  108 1    
    82   41  109 1    
    83   42   43 2    
    84   42   44 am   BACKBONE|DICT|INTERRES
    85   44   45 1    
    86   44  110 1    
    87   45   46 1    
    88   45   47 1    
    89   45  111 1    
    90   46  112 1    
    91   46  113 1    
    92   46  114 1    
    93   47   48 2    
    94   47   49 am   BACKBONE|DICT|INTERRES
    95   49   50 1    
    96   49  115 1    
    97   50   51 1    
    98   50   52 1    
    99   50  116 1    
   100   51  117 1    
   101   51  118 1    
   102   51  119 1    
   103   52   53 2    
   104   52   54 am   BACKBONE|DICT|INTERRES
   105   54   55 1    
   106   54  120 1    
   107   55   56 1    
   108   55   57 1    
   109   55  121 1    
   110   56  122 1    
   111   56  123 1    
   112   56  124 1    
   113   57   58 2    
   114   57   59 am   BACKBONE|DICT|INTERRES
   115   59   60 1    
   116   59  125 1    
   117   60   61 1    
   118   60   62 1    
   119   60  126 1    
   120   61  127 1    
   121   61  128 1    
   122   61  129 1    
   123   62   63 2    
   124   62   64 am   BACKBONE|DICT|INTERRES
   125   64   65 1    
   126   64  130 1    
   127   65   66 1    
   128   65   69 1    
   129   65  131 1    
   130   66   67 am   BACKBONE|DICT|INTERRES
   131   66   68 2    
   132   67  132 1    
   133   67  133 1    
   134   69   70 1    
   135   69  134 1    
   136   69  135 1    
   137   70   71 1    
   138   71  136 1    
   139   71  137 1    
@<TRIPOS>SUBSTRUCTURE
     1 UNK         1 GROUP             0       ****    0 ROOT    
