@<TRIPOS>MOLECULE
3R136
137   139    1
SMALL
USER_CHARGES


@<TRIPOS>ATOM
      1 CA         27.7683   19.9811    1.6747 C.3       0 UNK        -0.1979 
      2 C          27.8989   21.3670    1.0619 C.2       0 UNK         0.4864 
      3 O          26.8833   22.0125    0.8003 O.2       0 UNK        -0.5359 
      4 N          29.1404   21.8138    0.8153 N.am      1 UNK        -0.4318 
      5 CA         29.5232   23.1433    0.3062 C.3       1 UNK         0.0824 
      6 C6         29.4153   24.2555    1.3857 C.3       12 UNK        -0.0944 
      7 S7         30.5282   23.8988    2.7891 S.3       12 UNK        -0.2672 
      8 C8         29.3693   23.6835    4.1721 C.3       12 UNK         0.0333 
      9 C9         29.1341   24.9964    4.9034 C.ar      12 UNK        -0.0807 
     10 C10        30.0666   25.4424    5.8474 C.ar      12 UNK        -0.0894 
     11 C11        29.8484   26.6280    6.5542 C.ar      12 UNK        -0.0804 
     12 C12        28.6934   27.3714    6.3033 C.ar      12 UNK        -0.0824 
     13 C13        27.7602   26.9452    5.3545 C.ar      12 UNK        -0.0762 
     14 C14        27.9808   25.7502    4.6610 C.ar      12 UNK        -0.0782 
     15 C15        26.5081   27.7762    5.1152 C.3       12 UNK         0.0230 
     16 S16        26.9184   29.3651    4.3246 S.3       12 UNK        -0.2608 
     17 C17        26.4022   29.0791    2.6016 C.3       12 UNK        -0.0989 
     18 CA         27.3086   28.0972    1.8194 C.3       5 UNK         0.0716 
     19 N          26.7545   27.7826    0.5100 N.am      5 UNK        -0.4135 
     20 C          25.8064   26.8682    0.2862 C.2       4 UNK         0.5031 
     21 O          25.2745   26.2145    1.1867 O.2       4 UNK        -0.5229 
     22 CA         25.3655   26.6355   -1.1690 C.3       4 UNK         0.0329 
     23 CB         26.2548   27.3290   -2.2226 C.3       4 UNK        -0.2001 
     24 N          25.3814   25.1980   -1.4126 N.am      4 UNK        -0.4303 
     25 C          24.3099   24.4146   -1.5929 C.2       3 UNK         0.5044 
     26 O          23.1551   24.8409   -1.6596 O.2       3 UNK        -0.5152 
     27 CA         24.5655   22.8946   -1.6975 C.3       3 UNK         0.0319 
     28 CB         23.5532   22.1754   -2.6153 C.3       3 UNK        -0.2001 
     29 N          25.9502   22.5574   -2.0539 N.am      3 UNK        -0.4354 
     30 C          26.5889   22.8445   -3.2013 C.2       2 UNK         0.4964 
     31 O          26.0361   23.3379   -4.1855 O.2       2 UNK        -0.5047 
     32 CA         28.1060   22.5567   -3.2525 C.3       2 UNK         0.0288 
     33 CB         28.8542   23.5270   -4.1926 C.3       2 UNK        -0.2113 
     34 N          28.7587   22.5202   -1.9347 N.am      2 UNK        -0.4145 
     35 C          28.8099   23.5014   -1.0172 C.2       1 UNK         0.5006 
     36 O          28.2886   24.6087   -1.1658 O.2       1 UNK        -0.5103 
     37 C          28.7315   28.6245    1.6000 C.2       5 UNK         0.5055 
     38 O          28.9265   29.4991    0.7525 O.2       5 UNK        -0.5220 
     39 N          29.6947   28.0809    2.3542 N.am      6 UNK        -0.4450 
     40 CA         31.1078   28.4506    2.2642 C.3       6 UNK         0.0367 
     41 CB         31.9699   27.2607    2.7024 C.3       6 UNK        -0.1929 
     42 C          31.4627   29.7006    3.0830 C.2       6 UNK         0.5070 
     43 O          32.4893   30.3184    2.8031 O.2       6 UNK        -0.5237 
     44 N          30.6157   30.0784    4.0538 N.am      7 UNK        -0.4739 
     45 CA         30.8339   31.1989    4.9814 C.3       7 UNK         0.0276 
     46 CB         29.7378   31.1938    6.0580 C.3       7 UNK        -0.1927 
     47 C          30.9363   32.5872    4.3201 C.2       7 UNK         0.5013 
     48 O          31.4174   33.5219    4.9611 O.2       7 UNK        -0.5193 
     49 N          30.5183   32.6959    3.0509 N.am      8 UNK        -0.4253 
     50 CA         30.7394   33.8586    2.1879 C.3       8 UNK         0.0242 
     51 CB         29.9094   33.6913    0.9045 C.3       8 UNK        -0.2000 
     52 C          32.2257   34.0933    1.8436 C.2       8 UNK         0.4948 
     53 O          32.5862   35.2233    1.5106 O.2       8 UNK        -0.5275 
     54 N          33.0517   33.0413    1.9301 N.am      9 UNK        -0.4246 
     55 CA         34.5020   33.0823    1.7737 C.3       9 UNK         0.0261 
     56 CB         34.9149   32.1833    0.5905 C.3       9 UNK        -0.1959 
     57 C          35.1259   32.6568    3.1102 C.2       9 UNK         0.5033 
     58 O          35.4207   33.5183    3.9401 O.2       9 UNK        -0.5390 
     59 N          35.2848   31.3446    3.3073 N.am      10 UNK        -0.4215 
     60 CA         35.7333   30.6952    4.5330 C.3       10 UNK         0.0240 
     61 CB         37.2559   30.8480    4.7092 C.3       10 UNK        -0.1982 
     62 C          35.3368   29.2188    4.4362 C.2       10 UNK         0.4970 
     63 O          35.3997   28.6498    3.3434 O.2       10 UNK        -0.4916 
     64 N          34.9512   28.6258    5.5706 N.am      11 UNK        -0.4279 
     65 CA         34.5059   27.2239    5.6643 C.3       11 UNK         0.1003 
     66 C          35.6551   26.1734    5.6378 C.2       11 UNK         0.5709 
     67 N          36.9218   26.5662    5.7066 N.am      11 UNK        -0.7358 
     68 O          35.3914   24.9769    5.5448 O.2       11 UNK        -0.4999 
     69 C69        33.5647   26.9951    6.8760 C.3       12 UNK        -0.0954 
     70 S70        32.1432   28.1408    6.9043 S.3       12 UNK        -0.2268 
     71 C71        30.8330   27.0976    7.6144 C.3       12 UNK         0.0203 
     72 H72        27.2314   20.0411    2.6224 H         1 UNK         0.0888 
     73 H73        27.2085   19.3262    1.0057 H         1 UNK         0.0888 
     74 H74        28.7408   19.5247    1.8640 H         1 UNK         0.0888 
     75 H75        29.9207   21.2156    1.0497 H         1 UNK         0.3017 
     76 H76        30.5774   23.0648    0.0346 H         1 UNK         0.0873 
     77 H77        28.3847   24.3693    1.7263 H         1 UNK         0.0745 
     78 H78        29.7101   25.2234    0.9758 H         1 UNK         0.0745 
     79 H79        28.4310   23.2531    3.8184 H         1 UNK         0.0705 
     80 H80        29.7901   22.9551    4.8668 H         1 UNK         0.0705 
     81 H81        30.9577   24.8601    6.0388 H         1 UNK         0.1334 
     82 H82        28.5123   28.2844    6.8534 H         1 UNK         0.1417 
     83 H83        27.2518   25.3987    3.9427 H         1 UNK         0.1562 
     84 H84        26.0262   27.9764    6.0734 H         1 UNK         0.0748 
     85 H85        25.7782   27.2280    4.5172 H         1 UNK         0.0748 
     86 H86        26.3592   30.0439    2.0924 H         1 UNK         0.0940 
     87 H87        25.3749   28.7115    2.6184 H         1 UNK         0.0940 
     88 H88        27.3816   27.1627    2.3749 H         1 UNK         0.0703 
     89 H89        27.1821   28.2733   -0.2646 H         1 UNK         0.3081 
     90 H90        24.3525   27.0315   -1.2626 H         1 UNK         0.0719 
     91 H91        26.2187   28.4147   -2.1247 H         1 UNK         0.0809 
     92 H92        27.2974   27.0156   -2.1493 H         1 UNK         0.0809 
     93 H93        25.9154   27.0926   -3.2314 H         1 UNK         0.0809 
     94 H94        26.2948   24.7610   -1.3332 H         1 UNK         0.2990 
     95 H95        24.4219   22.5051   -0.6884 H         1 UNK         0.0690 
     96 H96        23.7579   21.1064   -2.6717 H         1 UNK         0.0788 
     97 H97        23.5671   22.5752   -3.6295 H         1 UNK         0.0788 
     98 H98        22.5360   22.2891   -2.2385 H         1 UNK         0.0788 
     99 H99        26.4978   22.1910   -1.2822 H         1 UNK         0.2993 
    100 H100       28.2021   21.5529   -3.6695 H         1 UNK         0.0949 
    101 H101       28.7399   24.5645   -3.8758 H         1 UNK         0.0767 
    102 H102       29.9203   23.3026   -4.2281 H         1 UNK         0.0767 
    103 H103       28.4773   23.4557   -5.2137 H         1 UNK         0.0767 
    104 H104       29.1923   21.6394   -1.6925 H         1 UNK         0.3013 
    105 H105       29.4548   27.3758    3.0380 H         1 UNK         0.3121 
    106 H106       31.3527   28.6708    1.2226 H         1 UNK         0.0774 
    107 H107       31.7420   26.9469    3.7220 H         1 UNK         0.0815 
    108 H108       31.8241   26.4072    2.0420 H         1 UNK         0.0815 
    109 H109       33.0293   27.5138    2.6584 H         1 UNK         0.0815 
    110 H110       29.7828   29.5265    4.2025 H         1 UNK         0.2987 
    111 H111       31.7920   31.0215    5.4752 H         1 UNK         0.0949 
    112 H112       29.7351   30.2578    6.6148 H         1 UNK         0.0806 
    113 H113       29.8973   31.9937    6.7824 H         1 UNK         0.0806 
    114 H114       28.7470   31.3396    5.6273 H         1 UNK         0.0806 
    115 H115       30.1282   31.8722    2.6153 H         1 UNK         0.3010 
    116 H116       30.3826   34.7445    2.7178 H         1 UNK         0.0829 
    117 H117       30.2079   32.8046    0.3431 H         1 UNK         0.0813 
    118 H118       30.0321   34.5518    0.2451 H         1 UNK         0.0813 
    119 H119       28.8456   33.6052    1.1274 H         1 UNK         0.0813 
    120 H120       32.6772   32.1504    2.2495 H         1 UNK         0.3038 
    121 H121       34.8454   34.0979    1.5652 H         1 UNK         0.0769 
    122 H122       34.5593   32.5987   -0.3526 H         1 UNK         0.0811 
    123 H123       34.5108   31.1735    0.6735 H         1 UNK         0.0811 
    124 H124       36.0006   32.1037    0.5176 H         1 UNK         0.0811 
    125 H125       34.9496   30.6940    2.6052 H         1 UNK         0.3204 
    126 H126       35.2149   31.1502    5.3798 H         1 UNK         0.0748 
    127 H127       37.5978   30.3446    5.6142 H         1 UNK         0.0771 
    128 H128       37.8022   30.4189    3.8681 H         1 UNK         0.0771 
    129 H129       37.5454   31.8954    4.7955 H         1 UNK         0.0771 
    130 H130       34.9342   29.1531    6.4309 H         1 UNK         0.2980 
    131 H131       33.9170   27.0135    4.7723 H         1 UNK         0.0545 
    132 H132       37.1514   27.5438    5.7782 H         1 UNK         0.3459 
    133 H133       37.6545   25.8745    5.6837 H         1 UNK         0.3459 
    134 H134       34.1116   27.1094    7.8135 H         1 UNK         0.0616 
    135 H135       33.1879   25.9709    6.8618 H         1 UNK         0.0616 
    136 H136       31.2617   26.2441    8.1414 H         1 UNK         0.0634 
    137 H137       30.3074   27.6794    8.3732 H         1 UNK         0.0634 
@<TRIPOS>BOND
     1    1    2 1    
     2    1   72 1    
     3    1   73 1    
     4    1   74 1    
     5    2    3 2    
     6    2    4 am   BACKBONE|DICT|INTERRES
     7    4    5 1    
     8    4   75 1    
     9    5    6 1    
    10    5   35 1    
    11    5   76 1    
    12    6    7 1    
    13    6   77 1    
    14    6   78 1    
    15    7    8 1    
    16    8    9 1    
    17    8   79 1    
    18    8   80 1    
    19    9   10 ar   
    20    9   14 ar   
    21   10   11 ar   
    22   10   81 1    
    23   11   12 ar   
    24   11   71 1    
    25   12   13 ar   
    26   12   82 1    
    27   13   14 ar   
    28   13   15 1    
    29   14   83 1    
    30   15   16 1    
    31   15   84 1    
    32   15   85 1    
    33   16   17 1    
    34   17   18 1    
    35   17   86 1    
    36   17   87 1    
    37   18   19 1    
    38   18   37 1    
    39   18   88 1    
    40   19   20 am   BACKBONE|DICT|INTERRES
    41   19   89 1    
    42   20   21 2    
    43   20   22 1    
    44   22   23 1    
    45   22   24 1    
    46   22   90 1    
    47   23   91 1    
    48   23   92 1    
    49   23   93 1    
    50   24   25 am   BACKBONE|DICT|INTERRES
    51   24   94 1    
    52   25   26 2    
    53   25   27 1    
    54   27   28 1    
    55   27   29 1    
    56   27   95 1    
    57   28   96 1    
    58   28   97 1    
    59   28   98 1    
    60   29   30 am   BACKBONE|DICT|INTERRES
    61   29   99 1    
    62   30   31 2    
    63   30   32 1    
    64   32   33 1    
    65   32   34 1    
    66   32  100 1    
    67   33  101 1    
    68   33  102 1    
    69   33  103 1    
    70   34   35 am   BACKBONE|DICT|INTERRES
    71   34  104 1    
    72   35   36 2    
    73   37   38 2    
    74   37   39 am   BACKBONE|DICT|INTERRES
    75   39   40 1    
    76   39  105 1    
    77   40   41 1    
    78   40   42 1    
    79   40  106 1    
    80   41  107 1    
    81   41  108 1    
    82   41  109 1    
    83   42   43 2    
    84   42   44 am   BACKBONE|DICT|INTERRES
    85   44   45 1    
    86   44  110 1    
    87   45   46 1    
    88   45   47 1    
    89   45  111 1    
    90   46  112 1    
    91   46  113 1    
    92   46  114 1    
    93   47   48 2    
    94   47   49 am   BACKBONE|DICT|INTERRES
    95   49   50 1    
    96   49  115 1    
    97   50   51 1    
    98   50   52 1    
    99   50  116 1    
   100   51  117 1    
   101   51  118 1    
   102   51  119 1    
   103   52   53 2    
   104   52   54 am   BACKBONE|DICT|INTERRES
   105   54   55 1    
   106   54  120 1    
   107   55   56 1    
   108   55   57 1    
   109   55  121 1    
   110   56  122 1    
   111   56  123 1    
   112   56  124 1    
   113   57   58 2    
   114   57   59 am   BACKBONE|DICT|INTERRES
   115   59   60 1    
   116   59  125 1    
   117   60   61 1    
   118   60   62 1    
   119   60  126 1    
   120   61  127 1    
   121   61  128 1    
   122   61  129 1    
   123   62   63 2    
   124   62   64 am   BACKBONE|DICT|INTERRES
   125   64   65 1    
   126   64  130 1    
   127   65   66 1    
   128   65   69 1    
   129   65  131 1    
   130   66   67 am   BACKBONE|DICT|INTERRES
   131   66   68 2    
   132   67  132 1    
   133   67  133 1    
   134   69   70 1    
   135   69  134 1    
   136   69  135 1    
   137   70   71 1    
   138   71  136 1    
   139   71  137 1    
@<TRIPOS>SUBSTRUCTURE
     1 UNK         1 GROUP             0       ****    0 ROOT    
