@<TRIPOS>MOLECULE
3R136
137   139    1
SMALL
USER_CHARGES


@<TRIPOS>ATOM
      1 CA         29.3446   23.8363   -3.8160 C.3       0 UNK        -0.1979 
      2 C          29.2277   23.6422   -2.3128 C.2       0 UNK         0.4864 
      3 O          28.8039   24.5645   -1.6108 O.2       0 UNK        -0.5359 
      4 N          29.5810   22.4481   -1.8127 N.am      1 UNK        -0.4318 
      5 CA         29.5946   22.0578   -0.3938 C.3       1 UNK         0.0824 
      6 C6         30.4902   20.8126   -0.1489 C.3       12 UNK        -0.0944 
      7 S7         32.2659   21.2067   -0.2887 S.3       12 UNK        -0.2672 
      8 C8         32.7432   21.3623    1.4673 C.3       12 UNK         0.0333 
      9 C9         32.2172   22.6525    2.0830 C.ar      12 UNK        -0.0807 
     10 C10        32.9950   23.8129    2.0481 C.ar      12 UNK        -0.0894 
     11 C11        32.5068   25.0107    2.5772 C.ar      12 UNK        -0.0804 
     12 C12        31.2220   25.0469    3.1263 C.ar      12 UNK        -0.0824 
     13 C13        30.4296   23.8924    3.1694 C.ar      12 UNK        -0.0762 
     14 C14        30.9486   22.6936    2.6709 C.ar      12 UNK        -0.0782 
     15 C15        28.9964   23.9268    3.6955 C.3       12 UNK         0.0230 
     16 S16        28.8134   24.9158    5.2146 S.3       12 UNK        -0.2608 
     17 C17        27.5324   26.1260    4.7423 C.3       12 UNK        -0.0989 
     18 CA         28.1325   27.3750    4.0452 C.3       5 UNK         0.0716 
     19 N          28.4045   27.1431    2.6206 N.am      5 UNK        -0.4135 
     20 C          29.2049   27.9141    1.8701 C.2       4 UNK         0.5031 
     21 O          29.8308   28.8747    2.3179 O.2       4 UNK        -0.5229 
     22 CA         29.2833   27.6176    0.3611 C.3       4 UNK         0.0329 
     23 CB         30.5083   26.7526    0.0344 C.3       4 UNK        -0.2001 
     24 N          28.0818   26.9931   -0.2005 N.am      4 UNK        -0.4303 
     25 C          26.8534   27.5321   -0.1737 C.2       3 UNK         0.5044 
     26 O          26.5980   28.6137    0.3555 O.2       3 UNK        -0.5152 
     27 CA         25.7093   26.7097   -0.7867 C.3       3 UNK         0.0319 
     28 CB         25.6237   26.9598   -2.3002 C.3       3 UNK        -0.2001 
     29 N          25.8292   25.2715   -0.5351 N.am      3 UNK        -0.4354 
     30 C          25.8255   24.6941    0.6765 C.2       2 UNK         0.4964 
     31 O          25.7171   25.3101    1.7361 O.2       2 UNK        -0.5047 
     32 CA         26.0796   23.1858    0.7009 C.3       2 UNK         0.0288 
     33 CB         24.9763   22.3923   -0.0254 C.3       2 UNK        -0.2113 
     34 N          27.3832   22.9661    0.0910 N.am      2 UNK        -0.4145 
     35 C          28.1798   21.9060    0.2193 C.2       1 UNK         0.5006 
     36 O          27.8506   20.8747    0.8084 O.2       1 UNK        -0.5103 
     37 C          27.2615   28.6290    4.2877 C.2       5 UNK         0.5055 
     38 O          27.2833   29.1514    5.4025 O.2       5 UNK        -0.5220 
     39 N          26.5333   29.1033    3.2670 N.am      6 UNK        -0.4450 
     40 CA         25.7960   30.3656    3.3014 C.3       6 UNK         0.0367 
     41 CB         24.4219   30.1766    2.6368 C.3       6 UNK        -0.1929 
     42 C          26.5889   31.4781    2.5996 C.2       6 UNK         0.5070 
     43 O          26.6633   32.5888    3.1247 O.2       6 UNK        -0.5237 
     44 N          27.1481   31.1707    1.4202 N.am      7 UNK        -0.4739 
     45 CA         27.8213   32.1328    0.5456 C.3       7 UNK         0.0276 
     46 CB         27.9580   31.5339   -0.8636 C.3       7 UNK        -0.1927 
     47 C          29.1864   32.6095    1.0672 C.2       7 UNK         0.5013 
     48 O          29.4893   33.7961    0.9325 O.2       7 UNK        -0.5193 
     49 N          29.9837   31.6924    1.6316 N.am      8 UNK        -0.4253 
     50 CA         31.3174   31.9762    2.1688 C.3       8 UNK         0.0242 
     51 CB         32.3542   31.0491    1.5100 C.3       8 UNK        -0.2000 
     52 C          31.3449   31.8219    3.6934 C.2       8 UNK         0.4948 
     53 O          31.9454   32.6592    4.3679 O.2       8 UNK        -0.5275 
     54 N          30.7189   30.7525    4.2092 N.am      9 UNK        -0.4246 
     55 CA         30.5802   30.3550    5.6196 C.3       9 UNK         0.0261 
     56 CB         29.8159   31.4144    6.4372 C.3       9 UNK        -0.1959 
     57 C          31.9023   29.9585    6.2997 C.2       9 UNK         0.5033 
     58 O          31.9936   28.8626    6.8526 O.2       9 UNK        -0.5390 
     59 N          32.9062   30.8382    6.2238 N.am      10 UNK        -0.4215 
     60 CA         34.2766   30.6125    6.6904 C.3       10 UNK         0.0240 
     61 CB         34.9033   31.9718    7.0456 C.3       10 UNK        -0.1982 
     62 C          35.1470   29.8669    5.6592 C.2       10 UNK         0.4970 
     63 O          36.2794   29.5102    5.9858 O.2       10 UNK        -0.4916 
     64 N          34.6214   29.6705    4.4408 N.am      11 UNK        -0.4279 
     65 CA         35.2785   29.0333    3.2853 C.3       11 UNK         0.1003 
     66 C          36.4494   29.8579    2.6668 C.2       11 UNK         0.5709 
     67 N          36.5959   31.1398    2.9814 N.am      11 UNK        -0.7358 
     68 O          37.2182   29.3421    1.8588 O.2       11 UNK        -0.4999 
     69 C69        35.6586   27.5422    3.5259 C.3       12 UNK        -0.0954 
     70 S70        34.2679   26.5041    4.0893 S.3       12 UNK        -0.2268 
     71 C71        33.3613   26.2676    2.5321 C.3       12 UNK         0.0203 
     72 H72        30.0201   24.6631   -4.0330 H         1 UNK         0.0888 
     73 H73        29.7260   22.9454   -4.3145 H         1 UNK         0.0888 
     74 H74        28.3690   24.0728   -4.2395 H         1 UNK         0.0888 
     75 H75        29.9026   21.7339   -2.4505 H         1 UNK         0.3017 
     76 H76        30.0418   22.8957    0.1434 H         1 UNK         0.0873 
     77 H77        30.3235   20.3755    0.8365 H         1 UNK         0.0745 
     78 H78        30.2469   20.0218   -0.8605 H         1 UNK         0.0745 
     79 H79        32.3893   20.4967    2.0294 H         1 UNK         0.0705 
     80 H80        33.8320   21.3389    1.5354 H         1 UNK         0.0705 
     81 H81        33.9799   23.7851    1.6020 H         1 UNK         0.1334 
     82 H82        30.8423   25.9798    3.5174 H         1 UNK         0.1417 
     83 H83        30.3462   21.7963    2.7040 H         1 UNK         0.1562 
     84 H84        28.6441   22.9168    3.9109 H         1 UNK         0.0748 
     85 H85        28.3484   24.3100    2.9076 H         1 UNK         0.0748 
     86 H86        27.0336   26.4029    5.6738 H         1 UNK         0.0940 
     87 H87        26.7617   25.6526    4.1327 H         1 UNK         0.0940 
     88 H88        29.0896   27.5921    4.5233 H         1 UNK         0.0703 
     89 H89        27.8778   26.4065    2.1729 H         1 UNK         0.3081 
     90 H90        29.4134   28.5764   -0.1423 H         1 UNK         0.0719 
     91 H91        30.4287   25.7556    0.4686 H         1 UNK         0.0809 
     92 H92        30.6314   26.6345   -1.0423 H         1 UNK         0.0809 
     93 H93        31.4230   27.2101    0.4104 H         1 UNK         0.0809 
     94 H94        28.2219   26.1144   -0.6943 H         1 UNK         0.2990 
     95 H95        24.7784   27.0502   -0.3284 H         1 UNK         0.0690 
     96 H96        24.7594   26.4592   -2.7371 H         1 UNK         0.0788 
     97 H97        26.5157   26.6061   -2.8195 H         1 UNK         0.0788 
     98 H98        25.5216   28.0247   -2.5144 H         1 UNK         0.0788 
     99 H99        25.9370   24.6836   -1.3491 H         1 UNK         0.2993 
    100 H100       26.1192   22.8664    1.7447 H         1 UNK         0.0949 
    101 H101       25.1288   21.3182    0.0814 H         1 UNK         0.0767 
    102 H102       23.9941   22.6210    0.3904 H         1 UNK         0.0767 
    103 H103       24.9431   22.6166   -1.0920 H         1 UNK         0.0767 
    104 H104       27.7705   23.7482   -0.4369 H         1 UNK         0.3013 
    105 H105       26.5768   28.6378    2.3670 H         1 UNK         0.3121 
    106 H106       25.6239   30.6794    4.3334 H         1 UNK         0.0774 
    107 H107       24.5094   29.8698    1.5939 H         1 UNK         0.0815 
    108 H108       23.8497   31.1051    2.6561 H         1 UNK         0.0815 
    109 H109       23.8325   29.4221    3.1578 H         1 UNK         0.0815 
    110 H110       26.9958   30.2396    1.0372 H         1 UNK         0.2987 
    111 H111       27.1799   33.0140    0.4704 H         1 UNK         0.0949 
    112 H112       28.5824   30.6411   -0.8665 H         1 UNK         0.0806 
    113 H113       26.9857   31.2621   -1.2751 H         1 UNK         0.0806 
    114 H114       28.4113   32.2506   -1.5498 H         1 UNK         0.0806 
    115 H115       29.6516   30.7384    1.7258 H         1 UNK         0.3010 
    116 H116       31.6081   33.0049    1.9452 H         1 UNK         0.0829 
    117 H117       32.1614   29.9968    1.7203 H         1 UNK         0.0813 
    118 H118       32.3604   31.1745    0.4272 H         1 UNK         0.0813 
    119 H119       33.3599   31.2775    1.8651 H         1 UNK         0.0813 
    120 H120       30.3312   30.0839    3.5445 H         1 UNK         0.3038 
    121 H121       29.9654   29.4560    5.6106 H         1 UNK         0.0769 
    122 H122       29.6421   31.0662    7.4561 H         1 UNK         0.0811 
    123 H123       30.3588   32.3574    6.5048 H         1 UNK         0.0811 
    124 H124       28.8402   31.6201    5.9961 H         1 UNK         0.0811 
    125 H125       32.7196   31.7024    5.7152 H         1 UNK         0.3204 
    126 H126       34.2489   30.0011    7.5948 H         1 UNK         0.0748 
    127 H127       35.9176   31.8495    7.4283 H         1 UNK         0.0771 
    128 H128       34.9580   32.6309    6.1782 H         1 UNK         0.0771 
    129 H129       34.3279   32.4824    7.8181 H         1 UNK         0.0771 
    130 H130       33.6830   29.9999    4.2803 H         1 UNK         0.2980 
    131 H131       34.5211   29.0360    2.5015 H         1 UNK         0.0545 
    132 H132       37.3492   31.6643    2.5653 H         1 UNK         0.3459 
    133 H133       35.9737   31.5835    3.6363 H         1 UNK         0.3459 
    134 H134       36.0638   27.0945    2.6169 H         1 UNK         0.0616 
    135 H135       36.4539   27.4686    4.2688 H         1 UNK         0.0616 
    136 H136       34.0596   26.2103    1.6958 H         1 UNK         0.0634 
    137 H137       32.7367   27.1442    2.3560 H         1 UNK         0.0634 
@<TRIPOS>BOND
     1    1    2 1    
     2    1   72 1    
     3    1   73 1    
     4    1   74 1    
     5    2    3 2    
     6    2    4 am   BACKBONE|DICT|INTERRES
     7    4    5 1    
     8    4   75 1    
     9    5    6 1    
    10    5   35 1    
    11    5   76 1    
    12    6    7 1    
    13    6   77 1    
    14    6   78 1    
    15    7    8 1    
    16    8    9 1    
    17    8   79 1    
    18    8   80 1    
    19    9   10 ar   
    20    9   14 ar   
    21   10   11 ar   
    22   10   81 1    
    23   11   12 ar   
    24   11   71 1    
    25   12   13 ar   
    26   12   82 1    
    27   13   14 ar   
    28   13   15 1    
    29   14   83 1    
    30   15   16 1    
    31   15   84 1    
    32   15   85 1    
    33   16   17 1    
    34   17   18 1    
    35   17   86 1    
    36   17   87 1    
    37   18   19 1    
    38   18   37 1    
    39   18   88 1    
    40   19   20 am   BACKBONE|DICT|INTERRES
    41   19   89 1    
    42   20   21 2    
    43   20   22 1    
    44   22   23 1    
    45   22   24 1    
    46   22   90 1    
    47   23   91 1    
    48   23   92 1    
    49   23   93 1    
    50   24   25 am   BACKBONE|DICT|INTERRES
    51   24   94 1    
    52   25   26 2    
    53   25   27 1    
    54   27   28 1    
    55   27   29 1    
    56   27   95 1    
    57   28   96 1    
    58   28   97 1    
    59   28   98 1    
    60   29   30 am   BACKBONE|DICT|INTERRES
    61   29   99 1    
    62   30   31 2    
    63   30   32 1    
    64   32   33 1    
    65   32   34 1    
    66   32  100 1    
    67   33  101 1    
    68   33  102 1    
    69   33  103 1    
    70   34   35 am   BACKBONE|DICT|INTERRES
    71   34  104 1    
    72   35   36 2    
    73   37   38 2    
    74   37   39 am   BACKBONE|DICT|INTERRES
    75   39   40 1    
    76   39  105 1    
    77   40   41 1    
    78   40   42 1    
    79   40  106 1    
    80   41  107 1    
    81   41  108 1    
    82   41  109 1    
    83   42   43 2    
    84   42   44 am   BACKBONE|DICT|INTERRES
    85   44   45 1    
    86   44  110 1    
    87   45   46 1    
    88   45   47 1    
    89   45  111 1    
    90   46  112 1    
    91   46  113 1    
    92   46  114 1    
    93   47   48 2    
    94   47   49 am   BACKBONE|DICT|INTERRES
    95   49   50 1    
    96   49  115 1    
    97   50   51 1    
    98   50   52 1    
    99   50  116 1    
   100   51  117 1    
   101   51  118 1    
   102   51  119 1    
   103   52   53 2    
   104   52   54 am   BACKBONE|DICT|INTERRES
   105   54   55 1    
   106   54  120 1    
   107   55   56 1    
   108   55   57 1    
   109   55  121 1    
   110   56  122 1    
   111   56  123 1    
   112   56  124 1    
   113   57   58 2    
   114   57   59 am   BACKBONE|DICT|INTERRES
   115   59   60 1    
   116   59  125 1    
   117   60   61 1    
   118   60   62 1    
   119   60  126 1    
   120   61  127 1    
   121   61  128 1    
   122   61  129 1    
   123   62   63 2    
   124   62   64 am   BACKBONE|DICT|INTERRES
   125   64   65 1    
   126   64  130 1    
   127   65   66 1    
   128   65   69 1    
   129   65  131 1    
   130   66   67 am   BACKBONE|DICT|INTERRES
   131   66   68 2    
   132   67  132 1    
   133   67  133 1    
   134   69   70 1    
   135   69  134 1    
   136   69  135 1    
   137   70   71 1    
   138   71  136 1    
   139   71  137 1    
@<TRIPOS>SUBSTRUCTURE
     1 UNK         1 GROUP             0       ****    0 ROOT    
