@<TRIPOS>MOLECULE
3R136
137   139    1
SMALL
USER_CHARGES


@<TRIPOS>ATOM
      1 CA         31.5773   21.1745    2.6631 C.3       0 UNK        -0.1979 
      2 C          30.6489   21.5050    1.5076 C.2       0 UNK         0.4864 
      3 O          29.7237   20.7413    1.2245 O.2       0 UNK        -0.5359 
      4 N          30.8755   22.6434    0.8381 N.am      1 UNK        -0.4318 
      5 CA         30.0894   23.1246   -0.3022 C.3       1 UNK         0.0824 
      6 C6         30.9611   23.9229   -1.3153 C.3       12 UNK        -0.0944 
      7 S7         31.6003   25.5694   -0.8369 S.3       12 UNK        -0.2672 
      8 C8         32.9989   25.2201    0.2873 C.3       12 UNK         0.0333 
      9 C9         32.6025   25.1956    1.7635 C.ar      12 UNK        -0.0807 
     10 C10        33.2528   24.3296    2.6496 C.ar      12 UNK        -0.0894 
     11 C11        32.8777   24.2720    3.9973 C.ar      12 UNK        -0.0804 
     12 C12        31.8448   25.0940    4.4614 C.ar      12 UNK        -0.0824 
     13 C13        31.1980   25.9744    3.5901 C.ar      12 UNK        -0.0762 
     14 C14        31.5967   26.0356    2.2543 C.ar      12 UNK        -0.0782 
     15 C15        30.0288   26.8276    4.0550 C.3       12 UNK         0.0230 
     16 S16        28.4810   26.1785    3.3531 S.3       12 UNK        -0.2608 
     17 C17        27.3037   27.5219    3.6978 C.3       12 UNK        -0.0989 
     18 CA         27.3263   28.6282    2.6132 C.3       5 UNK         0.0716 
     19 N          27.0873   28.1109    1.2520 N.am      5 UNK        -0.4135 
     20 C          27.3077   28.7899    0.1141 C.2       4 UNK         0.5031 
     21 O          27.6068   29.9841    0.0933 O.2       4 UNK        -0.5229 
     22 CA         27.1810   28.0545   -1.2280 C.3       4 UNK         0.0329 
     23 CB         28.5689   27.8769   -1.8628 C.3       4 UNK        -0.2001 
     24 N          26.5376   26.7469   -1.1093 N.am      4 UNK        -0.4303 
     25 C          25.2198   26.5394   -1.2390 C.2       3 UNK         0.5044 
     26 O          24.4062   27.4394   -1.4511 O.2       3 UNK        -0.5152 
     27 CA         24.7106   25.0897   -1.1197 C.3       3 UNK         0.0319 
     28 CB         24.5306   24.4698   -2.5148 C.3       3 UNK        -0.2001 
     29 N          25.5706   24.2175   -0.3162 N.am      3 UNK        -0.4354 
     30 C          25.7881   24.3654    0.9973 C.2       2 UNK         0.4964 
     31 O          25.2704   25.2491    1.6810 O.2       2 UNK        -0.5047 
     32 CA         26.7617   23.3755    1.6575 C.3       2 UNK         0.0288 
     33 CB         26.0180   22.0940    2.0676 C.3       2 UNK        -0.2113 
     34 N          27.9534   23.0072    0.8799 N.am      2 UNK        -0.4145 
     35 C          28.7783   23.7982    0.1732 C.2       1 UNK         0.5006 
     36 O          28.5445   24.9790   -0.0833 O.2       1 UNK        -0.5103 
     37 C          26.4421   29.8272    3.0311 C.2       5 UNK         0.5055 
     38 O          26.6565   30.3844    4.1086 O.2       5 UNK        -0.5220 
     39 N          25.4915   30.2365    2.1796 N.am      6 UNK        -0.4450 
     40 CA         24.7930   31.5197    2.2741 C.3       6 UNK         0.0367 
     41 CB         23.6086   31.5210    1.2943 C.3       6 UNK        -0.1929 
     42 C          25.7179   32.7256    2.0028 C.2       6 UNK         0.5070 
     43 O          25.4233   33.8196    2.4857 O.2       6 UNK        -0.5237 
     44 N          26.8044   32.5132    1.2452 N.am      7 UNK        -0.4739 
     45 CA         27.8143   33.5222    0.9175 C.3       7 UNK         0.0276 
     46 CB         27.6900   33.9004   -0.5679 C.3       7 UNK        -0.1927 
     47 C          29.2410   33.0444    1.2345 C.2       7 UNK         0.5013 
     48 O          30.0562   33.8583    1.6714 O.2       7 UNK        -0.5193 
     49 N          29.5346   31.7572    1.0003 N.am      8 UNK        -0.4253 
     50 CA         30.8395   31.1423    1.2519 C.3       8 UNK         0.0242 
     51 CB         30.9286   29.8062    0.4931 C.3       8 UNK        -0.2000 
     52 C          31.0889   30.9136    2.7502 C.2       8 UNK         0.4948 
     53 O          30.1467   30.6648    3.5042 O.2       8 UNK        -0.5275 
     54 N          32.3666   30.9466    3.1380 N.am      9 UNK        -0.4246 
     55 CA         32.8415   30.6707    4.4925 C.3       9 UNK         0.0261 
     56 CB         32.7009   31.9273    5.3764 C.3       9 UNK        -0.1959 
     57 C          34.2787   30.1384    4.4133 C.2       9 UNK         0.5033 
     58 O          35.1793   30.6908    5.0475 O.2       9 UNK        -0.5390 
     59 N          34.4773   29.0997    3.5875 N.am      10 UNK        -0.4215 
     60 CA         35.7768   28.4596    3.3594 C.3       10 UNK         0.0240 
     61 CB         35.6806   27.5063    2.1574 C.3       10 UNK        -0.1982 
     62 C          36.2954   27.7175    4.6019 C.2       10 UNK         0.4970 
     63 O          37.4824   27.8170    4.9155 O.2       10 UNK        -0.4916 
     64 N          35.3920   27.0069    5.2854 N.am      11 UNK        -0.4279 
     65 CA         35.6483   26.3495    6.5706 C.3       11 UNK         0.1003 
     66 C          35.4074   27.3342    7.7434 C.2       11 UNK         0.5709 
     67 N          36.2468   27.2986    8.7692 N.am      11 UNK        -0.7358 
     68 O          34.4444   28.0993    7.7492 O.2       11 UNK        -0.4999 
     69 C69        34.7885   25.0725    6.7350 C.3       12 UNK        -0.0954 
     70 S70        35.1954   23.8168    5.4764 S.3       12 UNK        -0.2268 
     71 C71        33.5471   23.2749    4.9348 C.3       12 UNK         0.0203 
     72 H72        31.5530   20.1071    2.8814 H         1 UNK         0.0888 
     73 H73        32.6057   21.4423    2.4239 H         1 UNK         0.0888 
     74 H74        31.2695   21.7134    3.5587 H         1 UNK         0.0888 
     75 H75        31.5916   23.2792    1.1630 H         1 UNK         0.3017 
     76 H76        29.7604   22.2433   -0.8582 H         1 UNK         0.0873 
     77 H77        31.8097   23.3101   -1.6233 H         1 UNK         0.0745 
     78 H78        30.3800   24.0742   -2.2266 H         1 UNK         0.0745 
     79 H79        33.7481   26.0006    0.1508 H         1 UNK         0.0705 
     80 H80        33.4738   24.2826   -0.0063 H         1 UNK         0.0705 
     81 H81        34.0451   23.6860    2.2911 H         1 UNK         0.1334 
     82 H82        31.5289   25.0323    5.4938 H         1 UNK         0.1417 
     83 H83        31.0801   26.7135    1.5889 H         1 UNK         0.1562 
     84 H84        30.1804   27.8584    3.7323 H         1 UNK         0.0748 
     85 H85        29.9593   26.8437    5.1436 H         1 UNK         0.0748 
     86 H86        27.5329   27.9311    4.6841 H         1 UNK         0.0940 
     87 H87        26.3052   27.0869    3.7729 H         1 UNK         0.0940 
     88 H88        28.3402   29.0289    2.5957 H         1 UNK         0.0703 
     89 H89        26.8357   27.1332    1.1910 H         1 UNK         0.3081 
     90 H90        26.5922   28.6905   -1.8924 H         1 UNK         0.0719 
     91 H91        29.0326   28.8434   -2.0636 H         1 UNK         0.0809 
     92 H92        28.5100   27.3428   -2.8110 H         1 UNK         0.0809 
     93 H93        29.2417   27.3240   -1.2073 H         1 UNK         0.0809 
     94 H94        27.1501   25.9664   -0.8793 H         1 UNK         0.2990 
     95 H95        23.7326   25.1289   -0.6352 H         1 UNK         0.0690 
     96 H96        24.0861   23.4762   -2.4542 H         1 UNK         0.0788 
     97 H97        25.4808   24.3830   -3.0435 H         1 UNK         0.0788 
     98 H98        23.8695   25.0809   -3.1312 H         1 UNK         0.0788 
     99 H99        26.0486   23.4713   -0.8000 H         1 UNK         0.2993 
    100 H100       27.1217   23.8469    2.5713 H         1 UNK         0.0949 
    101 H101       25.1395   22.3261    2.6717 H         1 UNK         0.0767 
    102 H102       25.6779   21.5295    1.1984 H         1 UNK         0.0767 
    103 H103       26.6544   21.4396    2.6640 H         1 UNK         0.0767 
    104 H104       28.2871   22.0579    1.0236 H         1 UNK         0.3013 
    105 H105       25.3710   29.7164    1.3228 H         1 UNK         0.3121 
    106 H106       24.4017   31.6235    3.2884 H         1 UNK         0.0774 
    107 H107       23.0502   32.4558    1.3602 H         1 UNK         0.0815 
    108 H108       23.9390   31.4115    0.2604 H         1 UNK         0.0815 
    109 H109       22.9108   30.7125    1.5127 H         1 UNK         0.0815 
    110 H110       26.9704   31.5769    0.8864 H         1 UNK         0.2987 
    111 H111       27.6495   34.4238    1.5119 H         1 UNK         0.0949 
    112 H112       26.7101   34.3252   -0.7862 H         1 UNK         0.0806 
    113 H113       28.4360   34.6461   -0.8460 H         1 UNK         0.0806 
    114 H114       27.8323   33.0354   -1.2172 H         1 UNK         0.0806 
    115 H115       28.8105   31.1370    0.6437 H         1 UNK         0.3010 
    116 H116       31.6093   31.8133    0.8641 H         1 UNK         0.0829 
    117 H117       30.7419   29.9414   -0.5721 H         1 UNK         0.0813 
    118 H118       31.9197   29.3616    0.5918 H         1 UNK         0.0813 
    119 H119       30.2099   29.0779    0.8699 H         1 UNK         0.0813 
    120 H120       33.0853   31.1482    2.4550 H         1 UNK         0.3038 
    121 H121       32.2377   29.8729    4.9313 H         1 UNK         0.0769 
    122 H122       33.2807   32.7627    4.9824 H         1 UNK         0.0811 
    123 H123       33.0514   31.7327    6.3909 H         1 UNK         0.0811 
    124 H124       31.6613   32.2468    5.4507 H         1 UNK         0.0811 
    125 H125       33.6843   28.7124    3.0969 H         1 UNK         0.3204 
    126 H126       36.4980   29.2427    3.1148 H         1 UNK         0.0748 
    127 H127       36.6510   27.0588    1.9377 H         1 UNK         0.0771 
    128 H128       34.9839   26.6901    2.3463 H         1 UNK         0.0771 
    129 H129       35.3541   28.0283    1.2577 H         1 UNK         0.0771 
    130 H130       34.4351   26.9970    4.9684 H         1 UNK         0.2980 
    131 H131       36.6962   26.0430    6.6014 H         1 UNK         0.0545 
    132 H132       37.0317   26.6657    8.7803 H         1 UNK         0.3459 
    133 H133       36.0951   27.9216    9.5471 H         1 UNK         0.3459 
    134 H134       34.9585   24.6201    7.7137 H         1 UNK         0.0616 
    135 H135       33.7264   25.3176    6.6923 H         1 UNK         0.0616 
    136 H136       33.6585   22.3178    4.4253 H         1 UNK         0.0634 
    137 H137       32.9227   23.0794    5.8080 H         1 UNK         0.0634 
@<TRIPOS>BOND
     1    1    2 1    
     2    1   72 1    
     3    1   73 1    
     4    1   74 1    
     5    2    3 2    
     6    2    4 am   BACKBONE|DICT|INTERRES
     7    4    5 1    
     8    4   75 1    
     9    5    6 1    
    10    5   35 1    
    11    5   76 1    
    12    6    7 1    
    13    6   77 1    
    14    6   78 1    
    15    7    8 1    
    16    8    9 1    
    17    8   79 1    
    18    8   80 1    
    19    9   10 ar   
    20    9   14 ar   
    21   10   11 ar   
    22   10   81 1    
    23   11   12 ar   
    24   11   71 1    
    25   12   13 ar   
    26   12   82 1    
    27   13   14 ar   
    28   13   15 1    
    29   14   83 1    
    30   15   16 1    
    31   15   84 1    
    32   15   85 1    
    33   16   17 1    
    34   17   18 1    
    35   17   86 1    
    36   17   87 1    
    37   18   19 1    
    38   18   37 1    
    39   18   88 1    
    40   19   20 am   BACKBONE|DICT|INTERRES
    41   19   89 1    
    42   20   21 2    
    43   20   22 1    
    44   22   23 1    
    45   22   24 1    
    46   22   90 1    
    47   23   91 1    
    48   23   92 1    
    49   23   93 1    
    50   24   25 am   BACKBONE|DICT|INTERRES
    51   24   94 1    
    52   25   26 2    
    53   25   27 1    
    54   27   28 1    
    55   27   29 1    
    56   27   95 1    
    57   28   96 1    
    58   28   97 1    
    59   28   98 1    
    60   29   30 am   BACKBONE|DICT|INTERRES
    61   29   99 1    
    62   30   31 2    
    63   30   32 1    
    64   32   33 1    
    65   32   34 1    
    66   32  100 1    
    67   33  101 1    
    68   33  102 1    
    69   33  103 1    
    70   34   35 am   BACKBONE|DICT|INTERRES
    71   34  104 1    
    72   35   36 2    
    73   37   38 2    
    74   37   39 am   BACKBONE|DICT|INTERRES
    75   39   40 1    
    76   39  105 1    
    77   40   41 1    
    78   40   42 1    
    79   40  106 1    
    80   41  107 1    
    81   41  108 1    
    82   41  109 1    
    83   42   43 2    
    84   42   44 am   BACKBONE|DICT|INTERRES
    85   44   45 1    
    86   44  110 1    
    87   45   46 1    
    88   45   47 1    
    89   45  111 1    
    90   46  112 1    
    91   46  113 1    
    92   46  114 1    
    93   47   48 2    
    94   47   49 am   BACKBONE|DICT|INTERRES
    95   49   50 1    
    96   49  115 1    
    97   50   51 1    
    98   50   52 1    
    99   50  116 1    
   100   51  117 1    
   101   51  118 1    
   102   51  119 1    
   103   52   53 2    
   104   52   54 am   BACKBONE|DICT|INTERRES
   105   54   55 1    
   106   54  120 1    
   107   55   56 1    
   108   55   57 1    
   109   55  121 1    
   110   56  122 1    
   111   56  123 1    
   112   56  124 1    
   113   57   58 2    
   114   57   59 am   BACKBONE|DICT|INTERRES
   115   59   60 1    
   116   59  125 1    
   117   60   61 1    
   118   60   62 1    
   119   60  126 1    
   120   61  127 1    
   121   61  128 1    
   122   61  129 1    
   123   62   63 2    
   124   62   64 am   BACKBONE|DICT|INTERRES
   125   64   65 1    
   126   64  130 1    
   127   65   66 1    
   128   65   69 1    
   129   65  131 1    
   130   66   67 am   BACKBONE|DICT|INTERRES
   131   66   68 2    
   132   67  132 1    
   133   67  133 1    
   134   69   70 1    
   135   69  134 1    
   136   69  135 1    
   137   70   71 1    
   138   71  136 1    
   139   71  137 1    
@<TRIPOS>SUBSTRUCTURE
     1 UNK         1 GROUP             0       ****    0 ROOT    
