@<TRIPOS>MOLECULE
3R136
137   139    1
SMALL
USER_CHARGES


@<TRIPOS>ATOM
      1 CA         27.0831   17.6440   -0.1285 C.3       0 UNK        -0.1979 
      2 C          27.4729   19.1003   -0.3349 C.2       0 UNK         0.4864 
      3 O          26.7915   19.8184   -1.0690 O.2       0 UNK        -0.5359 
      4 N          28.5675   19.5388    0.2989 N.am      1 UNK        -0.4318 
      5 CA         29.0491   20.9226    0.2820 C.3       1 UNK         0.0824 
      6 C6         30.5358   21.0051    0.7337 C.3       12 UNK        -0.0944 
      7 S7         30.8820   20.3024    2.3880 S.3       12 UNK        -0.2672 
      8 C8         32.3526   21.2490    2.9173 C.3       12 UNK         0.0333 
      9 C9         32.1204   22.7561    2.9840 C.ar      12 UNK        -0.0807 
     10 C10        32.9898   23.6276    2.3188 C.ar      12 UNK        -0.0894 
     11 C11        32.7855   25.0110    2.3541 C.ar      12 UNK        -0.0804 
     12 C12        31.6824   25.5183    3.0511 C.ar      12 UNK        -0.0824 
     13 C13        30.8170   24.6613    3.7357 C.ar      12 UNK        -0.0762 
     14 C14        31.0458   23.2827    3.7075 C.ar      12 UNK        -0.0782 
     15 C15        29.6127   25.2227    4.4721 C.3       12 UNK         0.0230 
     16 S16        28.1277   24.9892    3.4575 S.3       12 UNK        -0.2608 
     17 C17        27.1110   26.4524    3.8349 C.3       12 UNK        -0.0989 
     18 CA         27.6921   27.8047    3.3379 C.3       5 UNK         0.0716 
     19 N          28.3041   27.7419    2.0059 N.am      5 UNK        -0.4135 
     20 C          29.1237   28.6850    1.5127 C.2       4 UNK         0.5031 
     21 O          29.4757   29.6803    2.1469 O.2       4 UNK        -0.5229 
     22 CA         29.6253   28.5185    0.0653 C.3       4 UNK         0.0329 
     23 CB         30.9698   27.7773    0.0507 C.3       4 UNK        -0.2001 
     24 N          28.7022   27.8063   -0.8157 N.am      4 UNK        -0.4303 
     25 C          27.4214   28.1148   -1.0624 C.2       3 UNK         0.5044 
     26 O          26.8633   29.1246   -0.6336 O.2       3 UNK        -0.5152 
     27 CA         26.6157   27.0710   -1.8642 C.3       3 UNK         0.0319 
     28 CB         26.5576   27.4612   -3.3490 C.3       3 UNK        -0.2001 
     29 N          27.1529   25.7058   -1.7334 N.am      3 UNK        -0.4354 
     30 C          27.2357   25.0419   -0.5704 C.2       2 UNK         0.4964 
     31 O          26.7610   25.4705    0.4851 O.2       2 UNK        -0.5047 
     32 CA         28.0649   23.7481   -0.5645 C.3       2 UNK         0.0288 
     33 CB         29.5673   24.0832   -0.7046 C.3       2 UNK        -0.2113 
     34 N          27.7903   23.0593    0.6961 N.am      2 UNK        -0.4145 
     35 C          28.1189   21.8329    1.1239 C.2       1 UNK         0.5006 
     36 O          27.6898   21.4069    2.1983 O.2       1 UNK        -0.5103 
     37 C          26.6082   28.8978    3.3952 C.2       5 UNK         0.5055 
     38 O          26.5580   29.6525    4.3662 O.2       5 UNK        -0.5220 
     39 N          25.7800   28.9780    2.3419 N.am      6 UNK        -0.4450 
     40 CA         24.7322   29.9899    2.1788 C.3       6 UNK         0.0367 
     41 CB         23.7753   29.5680    1.0522 C.3       6 UNK        -0.1929 
     42 C          25.3117   31.3880    1.9100 C.2       6 UNK         0.5070 
     43 O          24.7706   32.3753    2.4077 O.2       6 UNK        -0.5237 
     44 N          26.4233   31.4428    1.1630 N.am      7 UNK        -0.4739 
     45 CA         27.2144   32.6548    0.9273 C.3       7 UNK         0.0276 
     46 CB         28.1780   32.3998   -0.2425 C.3       7 UNK        -0.1927 
     47 C          27.9976   33.1325    2.1674 C.2       7 UNK         0.5013 
     48 O          28.4496   34.2780    2.1770 O.2       7 UNK        -0.5193 
     49 N          28.1497   32.2527    3.1699 N.am      8 UNK        -0.4253 
     50 CA         28.8984   32.4239    4.4193 C.3       8 UNK         0.0242 
     51 CB         28.2391   33.4940    5.3156 C.3       8 UNK        -0.2000 
     52 C          30.3986   32.6722    4.1728 C.2       8 UNK         0.4948 
     53 O          30.9804   33.5899    4.7565 O.2       8 UNK        -0.5275 
     54 N          30.9935   31.8552    3.2933 N.am      9 UNK        -0.4246 
     55 CA         32.4142   31.9003    2.9468 C.3       9 UNK         0.0261 
     56 CB         32.6457   31.0431    1.6948 C.3       9 UNK        -0.1959 
     57 C          33.3025   31.4061    4.1013 C.2       9 UNK         0.5033 
     58 O          32.8943   30.5282    4.8676 O.2       9 UNK        -0.5390 
     59 N          34.5250   31.9457    4.1783 N.am      10 UNK        -0.4215 
     60 CA         35.5375   31.6121    5.1844 C.3       10 UNK         0.0240 
     61 CB         36.5056   32.8021    5.3293 C.3       10 UNK        -0.1982 
     62 C          36.2641   30.2904    4.8612 C.2       10 UNK         0.4970 
     63 O          37.4826   30.2842    4.6756 O.2       10 UNK        -0.4916 
     64 N          35.4988   29.1963    4.7876 N.am      11 UNK        -0.4279 
     65 CA         35.9914   27.8335    4.5239 C.3       11 UNK         0.1003 
     66 C          36.7541   27.1793    5.7135 C.2       11 UNK         0.5709 
     67 N          36.6974   27.7222    6.9244 N.am      11 UNK        -0.7358 
     68 O          37.4193   26.1625    5.5303 O.2       11 UNK        -0.4999 
     69 C69        34.8556   26.9059    4.0211 C.3       12 UNK        -0.0954 
     70 S70        34.0982   27.5035    2.4733 S.3       12 UNK        -0.2268 
     71 C71        33.7522   25.9323    1.6103 C.3       12 UNK         0.0203 
     72 H72        27.7780   17.1261    0.5324 H         1 UNK         0.0888 
     73 H73        26.0876   17.5810    0.3101 H         1 UNK         0.0888 
     74 H74        27.0693   17.1199   -1.0837 H         1 UNK         0.0888 
     75 H75        29.0688   18.9217    0.9222 H         1 UNK         0.3017 
     76 H76        29.0036   21.2464   -0.7579 H         1 UNK         0.0873 
     77 H77        31.1635   20.4794    0.0127 H         1 UNK         0.0745 
     78 H78        30.8767   22.0390    0.7146 H         1 UNK         0.0745 
     79 H79        32.6577   20.8985    3.9040 H         1 UNK         0.0705 
     80 H80        33.1751   21.0135    2.2401 H         1 UNK         0.0705 
     81 H81        33.8284   23.2267    1.7657 H         1 UNK         0.1334 
     82 H82        31.4951   26.5832    3.0629 H         1 UNK         0.1417 
     83 H83        30.3656   22.6163    4.2208 H         1 UNK         0.1562 
     84 H84        29.7652   26.2787    4.6955 H         1 UNK         0.0748 
     85 H85        29.4830   24.7175    5.4303 H         1 UNK         0.0748 
     86 H86        26.9354   26.4891    4.9118 H         1 UNK         0.0940 
     87 H87        26.1361   26.2634    3.3801 H         1 UNK         0.0940 
     88 H88        28.4770   28.1021    4.0363 H         1 UNK         0.0703 
     89 H89        28.0495   26.9432    1.4370 H         1 UNK         0.3081 
     90 H90        29.7762   29.5151   -0.3513 H         1 UNK         0.0719 
     91 H91        30.8686   26.7537    0.4119 H         1 UNK         0.0809 
     92 H92        31.3948   27.7401   -0.9525 H         1 UNK         0.0809 
     93 H93        31.7005   28.2712    0.6879 H         1 UNK         0.0809 
     94 H94        29.0589   26.9636   -1.2385 H         1 UNK         0.2990 
     95 H95        25.5980   27.0713   -1.4681 H         1 UNK         0.0690 
     96 H96        25.9243   26.7776   -3.9146 H         1 UNK         0.0788 
     97 H97        27.5474   27.4613   -3.8073 H         1 UNK         0.0788 
     98 H98        26.1413   28.4622   -3.4721 H         1 UNK         0.0788 
     99 H99        27.5536   25.2941   -2.5649 H         1 UNK         0.2993 
    100 H100       27.7274   23.1314   -1.3998 H         1 UNK         0.0949 
    101 H101       30.1435   23.2277   -1.0501 H         1 UNK         0.0767 
    102 H102       29.7461   24.8669   -1.4410 H         1 UNK         0.0767 
    103 H103       29.9942   24.4235    0.2403 H         1 UNK         0.0767 
    104 H104       27.2230   23.6332    1.3106 H         1 UNK         0.3013 
    105 H105       25.9205   28.3447    1.5670 H         1 UNK         0.3121 
    106 H106       24.1620   30.0402    3.1091 H         1 UNK         0.0774 
    107 H107       24.2843   29.4978    0.0903 H         1 UNK         0.0815 
    108 H108       22.9667   30.2914    0.9391 H         1 UNK         0.0815 
    109 H109       23.3170   28.6013    1.2613 H         1 UNK         0.0815 
    110 H110       26.7460   30.5886    0.7170 H         1 UNK         0.2987 
    111 H111       26.5305   33.4574    0.6427 H         1 UNK         0.0949 
    112 H112       28.9277   31.6521    0.0143 H         1 UNK         0.0806 
    113 H113       27.6479   32.0555   -1.1309 H         1 UNK         0.0806 
    114 H114       28.7106   33.3121   -0.5144 H         1 UNK         0.0806 
    115 H115       27.7567   31.3313    3.0310 H         1 UNK         0.3010 
    116 H116       28.8320   31.4696    4.9444 H         1 UNK         0.0829 
    117 H117       28.3037   34.4893    4.8752 H         1 UNK         0.0813 
    118 H118       27.1863   33.2705    5.4882 H         1 UNK         0.0813 
    119 H119       28.7253   33.5385    6.2908 H         1 UNK         0.0813 
    120 H120       30.4474   31.0988    2.8845 H         1 UNK         0.3038 
    121 H121       32.6735   32.9360    2.7168 H         1 UNK         0.0769 
    122 H122       32.4269   29.9963    1.8995 H         1 UNK         0.0811 
    123 H123       33.6825   31.1000    1.3611 H         1 UNK         0.0811 
    124 H124       32.0154   31.3639    0.8652 H         1 UNK         0.0811 
    125 H125       34.7974   32.6242    3.4811 H         1 UNK         0.3204 
    126 H126       35.0406   31.4756    6.1475 H         1 UNK         0.0748 
    127 H127       37.2534   32.6067    6.0993 H         1 UNK         0.0771 
    128 H128       37.0394   33.0065    4.4002 H         1 UNK         0.0771 
    129 H129       35.9769   33.7104    5.6194 H         1 UNK         0.0771 
    130 H130       34.4975   29.3046    4.9139 H         1 UNK         0.2980 
    131 H131       36.7240   27.9093    3.7180 H         1 UNK         0.0545 
    132 H132       37.2009   27.2900    7.6829 H         1 UNK         0.3459 
    133 H133       36.1524   28.5530    7.0877 H         1 UNK         0.3459 
    134 H134       35.2376   25.8976    3.8496 H         1 UNK         0.0616 
    135 H135       34.0718   26.8122    4.7749 H         1 UNK         0.0616 
    136 H136       34.7020   25.4250    1.4338 H         1 UNK         0.0634 
    137 H137       33.3372   26.1553    0.6274 H         1 UNK         0.0634 
@<TRIPOS>BOND
     1    1    2 1    
     2    1   72 1    
     3    1   73 1    
     4    1   74 1    
     5    2    3 2    
     6    2    4 am   BACKBONE|DICT|INTERRES
     7    4    5 1    
     8    4   75 1    
     9    5    6 1    
    10    5   35 1    
    11    5   76 1    
    12    6    7 1    
    13    6   77 1    
    14    6   78 1    
    15    7    8 1    
    16    8    9 1    
    17    8   79 1    
    18    8   80 1    
    19    9   10 ar   
    20    9   14 ar   
    21   10   11 ar   
    22   10   81 1    
    23   11   12 ar   
    24   11   71 1    
    25   12   13 ar   
    26   12   82 1    
    27   13   14 ar   
    28   13   15 1    
    29   14   83 1    
    30   15   16 1    
    31   15   84 1    
    32   15   85 1    
    33   16   17 1    
    34   17   18 1    
    35   17   86 1    
    36   17   87 1    
    37   18   19 1    
    38   18   37 1    
    39   18   88 1    
    40   19   20 am   BACKBONE|DICT|INTERRES
    41   19   89 1    
    42   20   21 2    
    43   20   22 1    
    44   22   23 1    
    45   22   24 1    
    46   22   90 1    
    47   23   91 1    
    48   23   92 1    
    49   23   93 1    
    50   24   25 am   BACKBONE|DICT|INTERRES
    51   24   94 1    
    52   25   26 2    
    53   25   27 1    
    54   27   28 1    
    55   27   29 1    
    56   27   95 1    
    57   28   96 1    
    58   28   97 1    
    59   28   98 1    
    60   29   30 am   BACKBONE|DICT|INTERRES
    61   29   99 1    
    62   30   31 2    
    63   30   32 1    
    64   32   33 1    
    65   32   34 1    
    66   32  100 1    
    67   33  101 1    
    68   33  102 1    
    69   33  103 1    
    70   34   35 am   BACKBONE|DICT|INTERRES
    71   34  104 1    
    72   35   36 2    
    73   37   38 2    
    74   37   39 am   BACKBONE|DICT|INTERRES
    75   39   40 1    
    76   39  105 1    
    77   40   41 1    
    78   40   42 1    
    79   40  106 1    
    80   41  107 1    
    81   41  108 1    
    82   41  109 1    
    83   42   43 2    
    84   42   44 am   BACKBONE|DICT|INTERRES
    85   44   45 1    
    86   44  110 1    
    87   45   46 1    
    88   45   47 1    
    89   45  111 1    
    90   46  112 1    
    91   46  113 1    
    92   46  114 1    
    93   47   48 2    
    94   47   49 am   BACKBONE|DICT|INTERRES
    95   49   50 1    
    96   49  115 1    
    97   50   51 1    
    98   50   52 1    
    99   50  116 1    
   100   51  117 1    
   101   51  118 1    
   102   51  119 1    
   103   52   53 2    
   104   52   54 am   BACKBONE|DICT|INTERRES
   105   54   55 1    
   106   54  120 1    
   107   55   56 1    
   108   55   57 1    
   109   55  121 1    
   110   56  122 1    
   111   56  123 1    
   112   56  124 1    
   113   57   58 2    
   114   57   59 am   BACKBONE|DICT|INTERRES
   115   59   60 1    
   116   59  125 1    
   117   60   61 1    
   118   60   62 1    
   119   60  126 1    
   120   61  127 1    
   121   61  128 1    
   122   61  129 1    
   123   62   63 2    
   124   62   64 am   BACKBONE|DICT|INTERRES
   125   64   65 1    
   126   64  130 1    
   127   65   66 1    
   128   65   69 1    
   129   65  131 1    
   130   66   67 am   BACKBONE|DICT|INTERRES
   131   66   68 2    
   132   67  132 1    
   133   67  133 1    
   134   69   70 1    
   135   69  134 1    
   136   69  135 1    
   137   70   71 1    
   138   71  136 1    
   139   71  137 1    
@<TRIPOS>SUBSTRUCTURE
     1 UNK         1 GROUP             0       ****    0 ROOT    
