@<TRIPOS>MOLECULE
3R136
137   139    1
SMALL
USER_CHARGES


@<TRIPOS>ATOM
      1 CA         31.1785   19.2538   -1.7549 C.3       0 UNK        -0.1979 
      2 C          30.8368   20.6486   -2.2585 C.2       0 UNK         0.4864 
      3 O          30.8777   20.8905   -3.4661 O.2       0 UNK        -0.5359 
      4 N          30.5065   21.5674   -1.3426 N.am      1 UNK        -0.4318 
      5 CA         30.0925   22.9400   -1.6481 C.3       1 UNK         0.0824 
      6 C6         30.1919   23.8717   -0.4129 C.3       12 UNK        -0.0944 
      7 S7         31.8879   24.0194    0.2448 S.3       12 UNK        -0.2672 
      8 C8         31.8654   22.8580    1.6492 C.3       12 UNK         0.0333 
      9 C9         31.2243   23.4535    2.8957 C.ar      12 UNK        -0.0807 
     10 C10        32.0029   24.1762    3.8054 C.ar      12 UNK        -0.0894 
     11 C11        31.4379   24.6760    4.9824 C.ar      12 UNK        -0.0804 
     12 C12        30.0803   24.4649    5.2410 C.ar      12 UNK        -0.0824 
     13 C13        29.2893   23.7535    4.3345 C.ar      12 UNK        -0.0762 
     14 C14        29.8681   23.2446    3.1678 C.ar      12 UNK        -0.0782 
     15 C15        27.8157   23.5076    4.6232 C.3       12 UNK         0.0230 
     16 S16        26.7441   24.6684    3.7191 S.3       12 UNK        -0.2608 
     17 C17        26.9718   26.2168    4.6601 C.3       12 UNK        -0.0989 
     18 CA         27.9168   27.2270    3.9609 C.3       5 UNK         0.0716 
     19 N          27.4896   27.5121    2.5851 N.am      5 UNK        -0.4135 
     20 C          27.8910   28.4927    1.7629 C.2       4 UNK         0.5031 
     21 O          28.6428   29.4135    2.0931 O.2       4 UNK        -0.5229 
     22 CA         27.3844   28.4691    0.3061 C.3       4 UNK         0.0329 
     23 CB         28.5700   28.3474   -0.6783 C.3       4 UNK        -0.2001 
     24 N          26.3466   27.4743   -0.0181 N.am      4 UNK        -0.4303 
     25 C          26.4734   26.1395   -0.0519 C.2       3 UNK         0.5044 
     26 O          27.4696   25.5394    0.3475 O.2       3 UNK        -0.5152 
     27 CA         25.3146   25.3146   -0.6420 C.3       3 UNK         0.0319 
     28 CB         24.0522   26.1286   -1.0109 C.3       3 UNK        -0.2001 
     29 N          25.8097   24.5297   -1.7789 N.am      3 UNK        -0.4354 
     30 C          26.3176   25.0072   -2.9257 C.2       2 UNK         0.4964 
     31 O          26.2776   26.1912   -3.2654 O.2       2 UNK        -0.5047 
     32 CA         27.0707   23.9897   -3.7997 C.3       2 UNK         0.0288 
     33 CB         27.2229   24.4599   -5.2588 C.3       2 UNK        -0.2113 
     34 N          28.4006   23.7560   -3.2325 N.am      2 UNK        -0.4145 
     35 C          28.6534   22.9398   -2.2009 C.2       1 UNK         0.5006 
     36 O          27.7937   22.2309   -1.6676 O.2       1 UNK        -0.5103 
     37 C          28.0668   28.4957    4.8227 C.2       5 UNK         0.5055 
     38 O          27.0775   29.1966    5.0516 O.2       5 UNK        -0.5220 
     39 N          29.3075   28.7721    5.2473 N.am      6 UNK        -0.4450 
     40 CA         29.7918   29.9586    5.9619 C.3       6 UNK         0.0367 
     41 CB         29.1206   30.1153    7.3400 C.3       6 UNK        -0.1929 
     42 C          29.7190   31.2578    5.1416 C.2       6 UNK         0.5070 
     43 O          30.7508   31.9029    4.9558 O.2       6 UNK        -0.5237 
     44 N          28.5138   31.6107    4.6788 N.am      7 UNK        -0.4739 
     45 CA         28.1523   32.8827    4.0474 C.3       7 UNK         0.0276 
     46 CB         26.6472   32.8762    3.7354 C.3       7 UNK        -0.1927 
     47 C          28.9568   33.2435    2.7884 C.2       7 UNK         0.5013 
     48 O          29.2936   34.4160    2.6151 O.2       7 UNK        -0.5193 
     49 N          29.2428   32.2473    1.9418 N.am      8 UNK        -0.4253 
     50 CA         30.0283   32.4064    0.7141 C.3       8 UNK         0.0242 
     51 CB         29.1191   32.2018   -0.5089 C.3       8 UNK        -0.2000 
     52 C          31.2452   31.4700    0.6808 C.2       8 UNK         0.4948 
     53 O          32.2418   31.8132    0.0444 O.2       8 UNK        -0.5275 
     54 N          31.1700   30.3268    1.3780 N.am      9 UNK        -0.4246 
     55 CA         32.2591   29.3582    1.5251 C.3       9 UNK         0.0261 
     56 CB         31.6901   28.0399    2.0771 C.3       9 UNK        -0.1959 
     57 C          33.4291   29.8622    2.3934 C.2       9 UNK         0.5033 
     58 O          34.5293   29.3239    2.2634 O.2       9 UNK        -0.5390 
     59 N          33.1827   30.8783    3.2398 N.am      10 UNK        -0.4215 
     60 CA         34.1431   31.5532    4.1248 C.3       10 UNK         0.0240 
     61 CB         35.1826   32.3451    3.3026 C.3       10 UNK        -0.1982 
     62 C          34.7808   30.5885    5.1424 C.2       10 UNK         0.4970 
     63 O          36.0058   30.5199    5.2599 O.2       10 UNK        -0.4916 
     64 N          33.9173   29.8444    5.8422 N.am      11 UNK        -0.4279 
     65 CA         34.2783   28.7871    6.8010 C.3       11 UNK         0.1003 
     66 C          34.9689   29.2809    8.1065 C.2       11 UNK         0.5709 
     67 N          34.9323   30.5668    8.4358 N.am      11 UNK        -0.7358 
     68 O          35.5517   28.4788    8.8323 O.2       11 UNK        -0.4999 
     69 C69        33.0586   27.8891    7.1376 C.3       12 UNK        -0.0954 
     70 S70        32.2387   27.2134    5.6536 S.3       12 UNK        -0.2268 
     71 C71        32.2937   25.4319    5.9846 C.3       12 UNK         0.0203 
     72 H72        32.1903   18.9837   -2.0560 H         1 UNK         0.0888 
     73 H73        31.1190   19.1861   -0.6687 H         1 UNK         0.0888 
     74 H74        30.4898   18.5232   -2.1784 H         1 UNK         0.0888 
     75 H75        30.4494   21.3009   -0.3718 H         1 UNK         0.3017 
     76 H76        30.7600   23.3286   -2.4208 H         1 UNK         0.0873 
     77 H77        29.5110   23.5493    0.3747 H         1 UNK         0.0745 
     78 H78        29.8723   24.8802   -0.6818 H         1 UNK         0.0745 
     79 H79        32.8942   22.5724    1.8736 H         1 UNK         0.0705 
     80 H80        31.3581   21.9359    1.3649 H         1 UNK         0.0705 
     81 H81        33.0529   24.3385    3.6032 H         1 UNK         0.1334 
     82 H82        29.6423   24.8514    6.1511 H         1 UNK         0.1417 
     83 H83        29.2578   22.6788    2.4777 H         1 UNK         0.1562 
     84 H84        27.6111   23.5695    5.6932 H         1 UNK         0.0748 
     85 H85        27.5548   22.4905    4.3268 H         1 UNK         0.0748 
     86 H86        27.3355   25.9796    5.6617 H         1 UNK         0.0940 
     87 H87        25.9838   26.6603    4.8014 H         1 UNK         0.0940 
     88 H88        28.8984   26.7581    3.8707 H         1 UNK         0.0703 
     89 H89        26.9297   26.7822    2.1677 H         1 UNK         0.3081 
     90 H90        26.9197   29.4424    0.1431 H         1 UNK         0.0719 
     91 H91        29.0824   27.3899   -0.5839 H         1 UNK         0.0809 
     92 H92        28.2373   28.4467   -1.7116 H         1 UNK         0.0809 
     93 H93        29.3209   29.1170   -0.5048 H         1 UNK         0.0809 
     94 H94        25.4729   27.8597   -0.3491 H         1 UNK         0.2990 
     95 H95        25.0301   24.5963    0.1285 H         1 UNK         0.0690 
     96 H96        24.2478   26.8923   -1.7640 H         1 UNK         0.0788 
     97 H97        23.6362   26.6260   -0.1338 H         1 UNK         0.0788 
     98 H98        23.2721   25.4764   -1.4038 H         1 UNK         0.0788 
     99 H99        25.9958   23.5545   -1.5746 H         1 UNK         0.2993 
    100 H100       26.5029   23.0562   -3.8060 H         1 UNK         0.0949 
    101 H101       27.8091   25.3768   -5.3337 H         1 UNK         0.0767 
    102 H102       27.7112   23.7002   -5.8696 H         1 UNK         0.0767 
    103 H103       26.2482   24.6581   -5.7068 H         1 UNK         0.0767 
    104 H104       29.1486   24.3275   -3.5987 H         1 UNK         0.3013 
    105 H105       30.0375   28.1162    5.0014 H         1 UNK         0.3121 
    106 H106       30.8497   29.7792    6.1488 H         1 UNK         0.0774 
    107 H107       29.5551   30.9514    7.8896 H         1 UNK         0.0815 
    108 H108       28.0499   30.3043    7.2603 H         1 UNK         0.0815 
    109 H109       29.2581   29.2218    7.9490 H         1 UNK         0.0815 
    110 H110       27.7602   30.9447    4.8338 H         1 UNK         0.2987 
    111 H111       28.3436   33.6670    4.7828 H         1 UNK         0.0949 
    112 H112       26.3370   33.8166    3.2773 H         1 UNK         0.0806 
    113 H113       26.3831   32.0731    3.0458 H         1 UNK         0.0806 
    114 H114       26.0545   32.7478    4.6413 H         1 UNK         0.0806 
    115 H115       28.9159   31.3107    2.1644 H         1 UNK         0.3010 
    116 H116       30.4353   33.4181    0.6542 H         1 UNK         0.0829 
    117 H117       28.3940   33.0113   -0.5931 H         1 UNK         0.0813 
    118 H118       29.6963   32.1876   -1.4346 H         1 UNK         0.0813 
    119 H119       28.5615   31.2692   -0.4509 H         1 UNK         0.0813 
    120 H120       30.2806   30.0668    1.7993 H         1 UNK         0.3038 
    121 H121       32.6647   29.1579    0.5311 H         1 UNK         0.0769 
    122 H122       32.4797   27.3059    2.2457 H         1 UNK         0.0811 
    123 H123       30.9797   27.5917    1.3822 H         1 UNK         0.0811 
    124 H124       31.1768   28.1916    3.0253 H         1 UNK         0.0811 
    125 H125       32.2335   31.2265    3.2945 H         1 UNK         0.3204 
    126 H126       33.5690   32.2761    4.7066 H         1 UNK         0.0748 
    127 H127       35.8307   32.9322    3.9544 H         1 UNK         0.0771 
    128 H128       35.8233   31.6870    2.7146 H         1 UNK         0.0771 
    129 H129       34.6978   33.0398    2.6165 H         1 UNK         0.0771 
    130 H130       32.9321   29.9654    5.6702 H         1 UNK         0.2980 
    131 H131       35.0149   28.1557    6.3004 H         1 UNK         0.0545 
    132 H132       35.3869   30.8724    9.2818 H         1 UNK         0.3459 
    133 H133       34.4608   31.2331    7.8464 H         1 UNK         0.3459 
    134 H134       32.3152   28.4521    7.7047 H         1 UNK         0.0616 
    135 H135       33.3663   27.0632    7.7816 H         1 UNK         0.0616 
    136 H136       31.9372   25.2366    6.9973 H         1 UNK         0.0634 
    137 H137       33.3281   25.0871    5.9446 H         1 UNK         0.0634 
@<TRIPOS>BOND
     1    1    2 1    
     2    1   72 1    
     3    1   73 1    
     4    1   74 1    
     5    2    3 2    
     6    2    4 am   BACKBONE|DICT|INTERRES
     7    4    5 1    
     8    4   75 1    
     9    5    6 1    
    10    5   35 1    
    11    5   76 1    
    12    6    7 1    
    13    6   77 1    
    14    6   78 1    
    15    7    8 1    
    16    8    9 1    
    17    8   79 1    
    18    8   80 1    
    19    9   10 ar   
    20    9   14 ar   
    21   10   11 ar   
    22   10   81 1    
    23   11   12 ar   
    24   11   71 1    
    25   12   13 ar   
    26   12   82 1    
    27   13   14 ar   
    28   13   15 1    
    29   14   83 1    
    30   15   16 1    
    31   15   84 1    
    32   15   85 1    
    33   16   17 1    
    34   17   18 1    
    35   17   86 1    
    36   17   87 1    
    37   18   19 1    
    38   18   37 1    
    39   18   88 1    
    40   19   20 am   BACKBONE|DICT|INTERRES
    41   19   89 1    
    42   20   21 2    
    43   20   22 1    
    44   22   23 1    
    45   22   24 1    
    46   22   90 1    
    47   23   91 1    
    48   23   92 1    
    49   23   93 1    
    50   24   25 am   BACKBONE|DICT|INTERRES
    51   24   94 1    
    52   25   26 2    
    53   25   27 1    
    54   27   28 1    
    55   27   29 1    
    56   27   95 1    
    57   28   96 1    
    58   28   97 1    
    59   28   98 1    
    60   29   30 am   BACKBONE|DICT|INTERRES
    61   29   99 1    
    62   30   31 2    
    63   30   32 1    
    64   32   33 1    
    65   32   34 1    
    66   32  100 1    
    67   33  101 1    
    68   33  102 1    
    69   33  103 1    
    70   34   35 am   BACKBONE|DICT|INTERRES
    71   34  104 1    
    72   35   36 2    
    73   37   38 2    
    74   37   39 am   BACKBONE|DICT|INTERRES
    75   39   40 1    
    76   39  105 1    
    77   40   41 1    
    78   40   42 1    
    79   40  106 1    
    80   41  107 1    
    81   41  108 1    
    82   41  109 1    
    83   42   43 2    
    84   42   44 am   BACKBONE|DICT|INTERRES
    85   44   45 1    
    86   44  110 1    
    87   45   46 1    
    88   45   47 1    
    89   45  111 1    
    90   46  112 1    
    91   46  113 1    
    92   46  114 1    
    93   47   48 2    
    94   47   49 am   BACKBONE|DICT|INTERRES
    95   49   50 1    
    96   49  115 1    
    97   50   51 1    
    98   50   52 1    
    99   50  116 1    
   100   51  117 1    
   101   51  118 1    
   102   51  119 1    
   103   52   53 2    
   104   52   54 am   BACKBONE|DICT|INTERRES
   105   54   55 1    
   106   54  120 1    
   107   55   56 1    
   108   55   57 1    
   109   55  121 1    
   110   56  122 1    
   111   56  123 1    
   112   56  124 1    
   113   57   58 2    
   114   57   59 am   BACKBONE|DICT|INTERRES
   115   59   60 1    
   116   59  125 1    
   117   60   61 1    
   118   60   62 1    
   119   60  126 1    
   120   61  127 1    
   121   61  128 1    
   122   61  129 1    
   123   62   63 2    
   124   62   64 am   BACKBONE|DICT|INTERRES
   125   64   65 1    
   126   64  130 1    
   127   65   66 1    
   128   65   69 1    
   129   65  131 1    
   130   66   67 am   BACKBONE|DICT|INTERRES
   131   66   68 2    
   132   67  132 1    
   133   67  133 1    
   134   69   70 1    
   135   69  134 1    
   136   69  135 1    
   137   70   71 1    
   138   71  136 1    
   139   71  137 1    
@<TRIPOS>SUBSTRUCTURE
     1 UNK         1 GROUP             0       ****    0 ROOT    
