@<TRIPOS>MOLECULE
3R136
137   139    1
SMALL
USER_CHARGES


@<TRIPOS>ATOM
      1 CA         28.3329   15.9013    2.0905 C.3       0 UNK        -0.1979 
      2 C          28.2971   16.9628    1.0009 C.2       0 UNK         0.4864 
      3 O          28.0900   16.6332   -0.1683 O.2       0 UNK        -0.5359 
      4 N          28.5063   18.2317    1.3733 N.am      1 UNK        -0.4318 
      5 CA         28.4360   19.3958    0.4859 C.3       1 UNK         0.0824 
      6 C6         29.1306   20.6379    1.1044 C.3       12 UNK        -0.0944 
      7 S7         28.6410   21.0095    2.8295 S.3       12 UNK        -0.2672 
      8 C8         28.2214   22.7758    2.7341 C.3       12 UNK         0.0333 
      9 C9         29.4617   23.6601    2.7853 C.ar      12 UNK        -0.0807 
     10 C10        29.8912   24.1881    4.0078 C.ar      12 UNK        -0.0894 
     11 C11        31.0308   24.9958    4.0827 C.ar      12 UNK        -0.0804 
     12 C12        31.7558   25.2426    2.9117 C.ar      12 UNK        -0.0824 
     13 C13        31.3201   24.7589    1.6771 C.ar      12 UNK        -0.0762 
     14 C14        30.1684   23.9698    1.6178 C.ar      12 UNK        -0.0782 
     15 C15        32.1159   25.0783    0.4181 C.3       12 UNK         0.0230 
     16 S16        31.3037   26.3178   -0.6445 S.3       12 UNK        -0.2608 
     17 C17        31.2014   27.7956    0.4289 C.3       12 UNK        -0.0989 
     18 CA         29.7443   28.3059    0.5417 C.3       5 UNK         0.0716 
     19 N          28.8594   27.2927    1.1201 N.am      5 UNK        -0.4135 
     20 C          27.5380   27.2380    0.9274 C.2       4 UNK         0.5031 
     21 O          26.9105   27.9918    0.1785 O.2       4 UNK        -0.5229 
     22 CA         26.7821   26.1749    1.7376 C.3       4 UNK         0.0329 
     23 CB         26.0315   26.8202    2.9134 C.3       4 UNK        -0.2001 
     24 N          25.8396   25.4216    0.9097 N.am      4 UNK        -0.4303 
     25 C          26.1955   24.5679   -0.0579 C.2       3 UNK         0.5044 
     26 O          27.3628   24.3112   -0.3656 O.2       3 UNK        -0.5152 
     27 CA         25.0559   23.8649   -0.7987 C.3       3 UNK         0.0319 
     28 CB         24.5996   24.6840   -2.0197 C.3       3 UNK        -0.2001 
     29 N          25.5348   22.5525   -1.2208 N.am      3 UNK        -0.4354 
     30 C          24.7681   21.4851   -1.4664 C.2       2 UNK         0.4964 
     31 O          23.5386   21.4932   -1.3930 O.2       2 UNK        -0.5047 
     32 CA         25.4864   20.1869   -1.8715 C.3       2 UNK         0.0288 
     33 CB         25.6460   20.1188   -3.3996 C.3       2 UNK        -0.2113 
     34 N          26.7987   20.0078   -1.2400 N.am      2 UNK        -0.4145 
     35 C          26.9807   19.6761    0.0469 C.2       1 UNK         0.5006 
     36 O          26.0603   19.5692    0.8623 O.2       1 UNK        -0.5103 
     37 C          29.6392   29.6224    1.3434 C.2       5 UNK         0.5055 
     38 O          29.1819   29.6081    2.4893 O.2       5 UNK        -0.5220 
     39 N          30.0407   30.7334    0.7077 N.am      6 UNK        -0.4450 
     40 CA         29.8531   32.1182    1.1581 C.3       6 UNK         0.0367 
     41 CB         30.5620   33.0670    0.1762 C.3       6 UNK        -0.1929 
     42 C          30.3227   32.4044    2.5952 C.2       6 UNK         0.5070 
     43 O          31.5220   32.3386    2.8750 O.2       6 UNK        -0.5237 
     44 N          29.3768   32.7824    3.4661 N.am      7 UNK        -0.4739 
     45 CA         29.6188   33.1525    4.8661 C.3       7 UNK         0.0276 
     46 CB         28.2751   33.3690    5.5788 C.3       7 UNK        -0.1927 
     47 C          30.5210   34.3883    5.0282 C.2       7 UNK         0.5013 
     48 O          31.2656   34.4663    6.0047 O.2       7 UNK        -0.5193 
     49 N          30.4980   35.2920    4.0373 N.am      8 UNK        -0.4253 
     50 CA         31.3958   36.4470    3.9235 C.3       8 UNK         0.0242 
     51 CB         30.9498   37.3165    2.7367 C.3       8 UNK        -0.2000 
     52 C          32.8835   36.0668    3.7806 C.2       8 UNK         0.4948 
     53 O          33.7436   36.8667    4.1494 O.2       8 UNK        -0.5275 
     54 N          33.1572   34.8549    3.2776 N.am      9 UNK        -0.4246 
     55 CA         34.4874   34.2524    3.1856 C.3       9 UNK         0.0261 
     56 CB         34.6533   33.6563    1.7751 C.3       9 UNK        -0.1959 
     57 C          34.6975   33.1766    4.2698 C.2       9 UNK         0.5033 
     58 O          35.6269   32.3775    4.1432 O.2       9 UNK        -0.5390 
     59 N          33.8182   33.1290    5.2865 N.am      10 UNK        -0.4215 
     60 CA         33.7488   32.1229    6.3566 C.3       10 UNK         0.0240 
     61 CB         34.9434   32.2750    7.3224 C.3       10 UNK        -0.1982 
     62 C          33.5848   30.6833    5.8240 C.2       10 UNK         0.4970 
     63 O          34.1170   29.7481    6.4218 O.2       10 UNK        -0.4916 
     64 N          32.8782   30.5516    4.6929 N.am      11 UNK        -0.4279 
     65 CA         32.7199   29.3407    3.8779 C.3       11 UNK         0.1003 
     66 C          34.0151   28.8653    3.1448 C.2       11 UNK         0.5709 
     67 N          35.1139   29.6119    3.1631 N.am      11 UNK        -0.7358 
     68 O          34.0130   27.8315    2.4846 O.2       11 UNK        -0.4999 
     69 C69        31.8416   28.2438    4.5662 C.3       12 UNK        -0.0954 
     70 S70        32.7120   26.8850    5.4300 S.3       12 UNK        -0.2268 
     71 C71        31.4405   25.5662    5.4452 C.3       12 UNK         0.0203 
     72 H72        27.3759   15.3826    2.1401 H         1 UNK         0.0888 
     73 H73        29.1085   15.1671    1.8742 H         1 UNK         0.0888 
     74 H74        28.5368   16.3310    3.0712 H         1 UNK         0.0888 
     75 H75        28.6377   18.4535    2.3505 H         1 UNK         0.3017 
     76 H76        28.9977   19.1359   -0.4145 H         1 UNK         0.0873 
     77 H77        30.2102   20.4802    1.1067 H         1 UNK         0.0745 
     78 H78        28.9680   21.5082    0.4679 H         1 UNK         0.0745 
     79 H79        27.5565   23.0207    3.5638 H         1 UNK         0.0705 
     80 H80        27.6474   22.9602    1.8289 H         1 UNK         0.0705 
     81 H81        29.3350   23.9668    4.9089 H         1 UNK         0.1334 
     82 H82        32.6607   25.8277    2.9479 H         1 UNK         0.1417 
     83 H83        29.8282   23.5988    0.6610 H         1 UNK         0.1562 
     84 H84        32.2584   24.1627   -0.1575 H         1 UNK         0.0748 
     85 H85        33.1159   25.4343    0.6724 H         1 UNK         0.0748 
     86 H86        31.8509   28.5612    0.0008 H         1 UNK         0.0940 
     87 H87        31.6086   27.5746    1.4141 H         1 UNK         0.0940 
     88 H88        29.3906   28.5202   -0.4697 H         1 UNK         0.0703 
     89 H89        29.2929   26.6395    1.7559 H         1 UNK         0.3081 
     90 H90        27.5045   25.4712    2.1492 H         1 UNK         0.0719 
     91 H91        26.7179   27.3759    3.5544 H         1 UNK         0.0809 
     92 H92        25.2690   27.5206    2.5701 H         1 UNK         0.0809 
     93 H93        25.5448   26.0689    3.5357 H         1 UNK         0.0809 
     94 H94        24.8584   25.6007    1.0667 H         1 UNK         0.2990 
     95 H95        24.2186   23.7367   -0.1090 H         1 UNK         0.0690 
     96 H96        23.7722   24.1991   -2.5380 H         1 UNK         0.0788 
     97 H97        25.4103   24.8200   -2.7367 H         1 UNK         0.0788 
     98 H98        24.2575   25.6757   -1.7208 H         1 UNK         0.0788 
     99 H99        26.5430   22.4731   -1.2675 H         1 UNK         0.2993 
    100 H100       24.8482   19.3558   -1.5621 H         1 UNK         0.0949 
    101 H101       24.6808   20.2227   -3.8976 H         1 UNK         0.0767 
    102 H102       26.2932   20.9126   -3.7752 H         1 UNK         0.0767 
    103 H103       26.0679   19.1634   -3.7126 H         1 UNK         0.0767 
    104 H104       27.6031   20.0735   -1.8474 H         1 UNK         0.3013 
    105 H105       30.4263   30.6309   -0.2199 H         1 UNK         0.3121 
    106 H106       28.7820   32.3222    1.1011 H         1 UNK         0.0774 
    107 H107       31.6347   32.8732    0.1321 H         1 UNK         0.0815 
    108 H108       30.1612   32.9703   -0.8329 H         1 UNK         0.0815 
    109 H109       30.4331   34.1088    0.4735 H         1 UNK         0.0815 
    110 H110       28.4148   32.7984    3.1576 H         1 UNK         0.2987 
    111 H111       30.1293   32.3138    5.3450 H         1 UNK         0.0949 
    112 H112       27.6618   32.4681    5.5513 H         1 UNK         0.0806 
    113 H113       28.4270   33.6223    6.6291 H         1 UNK         0.0806 
    114 H114       27.7026   34.1804    5.1275 H         1 UNK         0.0806 
    115 H115       29.8473   35.1441    3.2797 H         1 UNK         0.3010 
    116 H116       31.2972   37.0349    4.8386 H         1 UNK         0.0829 
    117 H117       31.0076   36.7730    1.7926 H         1 UNK         0.0813 
    118 H118       31.5816   38.2010    2.6421 H         1 UNK         0.0813 
    119 H119       29.9249   37.6661    2.8625 H         1 UNK         0.0813 
    120 H120       32.3888   34.2433    3.0238 H         1 UNK         0.3038 
    121 H121       35.2604   35.0098    3.3299 H         1 UNK         0.0769 
    122 H122       34.4905   34.4097    1.0042 H         1 UNK         0.0811 
    123 H123       33.9531   32.8385    1.5985 H         1 UNK         0.0811 
    124 H124       35.6594   33.2606    1.6303 H         1 UNK         0.0811 
    125 H125       33.0807   33.8255    5.3168 H         1 UNK         0.3204 
    126 H126       32.8402   32.3388    6.9205 H         1 UNK         0.0748 
    127 H127       35.8877   32.0172    6.8416 H         1 UNK         0.0771 
    128 H128       35.0242   33.2963    7.6945 H         1 UNK         0.0771 
    129 H129       34.8318   31.6239    8.1904 H         1 UNK         0.0771 
    130 H130       32.5013   31.3861    4.2537 H         1 UNK         0.2980 
    131 H131       32.1135   29.7051    3.0495 H         1 UNK         0.0545 
    132 H132       35.9255   29.2898    2.6616 H         1 UNK         0.3459 
    133 H133       35.1496   30.4977    3.6559 H         1 UNK         0.3459 
    134 H134       31.1989   27.7977    3.8079 H         1 UNK         0.0616 
    135 H135       31.1497   28.7039    5.2731 H         1 UNK         0.0616 
    136 H136       31.8130   24.7463    6.0604 H         1 UNK         0.0634 
    137 H137       30.5565   25.9560    5.9523 H         1 UNK         0.0634 
@<TRIPOS>BOND
     1    1    2 1    
     2    1   72 1    
     3    1   73 1    
     4    1   74 1    
     5    2    3 2    
     6    2    4 am   BACKBONE|DICT|INTERRES
     7    4    5 1    
     8    4   75 1    
     9    5    6 1    
    10    5   35 1    
    11    5   76 1    
    12    6    7 1    
    13    6   77 1    
    14    6   78 1    
    15    7    8 1    
    16    8    9 1    
    17    8   79 1    
    18    8   80 1    
    19    9   10 ar   
    20    9   14 ar   
    21   10   11 ar   
    22   10   81 1    
    23   11   12 ar   
    24   11   71 1    
    25   12   13 ar   
    26   12   82 1    
    27   13   14 ar   
    28   13   15 1    
    29   14   83 1    
    30   15   16 1    
    31   15   84 1    
    32   15   85 1    
    33   16   17 1    
    34   17   18 1    
    35   17   86 1    
    36   17   87 1    
    37   18   19 1    
    38   18   37 1    
    39   18   88 1    
    40   19   20 am   BACKBONE|DICT|INTERRES
    41   19   89 1    
    42   20   21 2    
    43   20   22 1    
    44   22   23 1    
    45   22   24 1    
    46   22   90 1    
    47   23   91 1    
    48   23   92 1    
    49   23   93 1    
    50   24   25 am   BACKBONE|DICT|INTERRES
    51   24   94 1    
    52   25   26 2    
    53   25   27 1    
    54   27   28 1    
    55   27   29 1    
    56   27   95 1    
    57   28   96 1    
    58   28   97 1    
    59   28   98 1    
    60   29   30 am   BACKBONE|DICT|INTERRES
    61   29   99 1    
    62   30   31 2    
    63   30   32 1    
    64   32   33 1    
    65   32   34 1    
    66   32  100 1    
    67   33  101 1    
    68   33  102 1    
    69   33  103 1    
    70   34   35 am   BACKBONE|DICT|INTERRES
    71   34  104 1    
    72   35   36 2    
    73   37   38 2    
    74   37   39 am   BACKBONE|DICT|INTERRES
    75   39   40 1    
    76   39  105 1    
    77   40   41 1    
    78   40   42 1    
    79   40  106 1    
    80   41  107 1    
    81   41  108 1    
    82   41  109 1    
    83   42   43 2    
    84   42   44 am   BACKBONE|DICT|INTERRES
    85   44   45 1    
    86   44  110 1    
    87   45   46 1    
    88   45   47 1    
    89   45  111 1    
    90   46  112 1    
    91   46  113 1    
    92   46  114 1    
    93   47   48 2    
    94   47   49 am   BACKBONE|DICT|INTERRES
    95   49   50 1    
    96   49  115 1    
    97   50   51 1    
    98   50   52 1    
    99   50  116 1    
   100   51  117 1    
   101   51  118 1    
   102   51  119 1    
   103   52   53 2    
   104   52   54 am   BACKBONE|DICT|INTERRES
   105   54   55 1    
   106   54  120 1    
   107   55   56 1    
   108   55   57 1    
   109   55  121 1    
   110   56  122 1    
   111   56  123 1    
   112   56  124 1    
   113   57   58 2    
   114   57   59 am   BACKBONE|DICT|INTERRES
   115   59   60 1    
   116   59  125 1    
   117   60   61 1    
   118   60   62 1    
   119   60  126 1    
   120   61  127 1    
   121   61  128 1    
   122   61  129 1    
   123   62   63 2    
   124   62   64 am   BACKBONE|DICT|INTERRES
   125   64   65 1    
   126   64  130 1    
   127   65   66 1    
   128   65   69 1    
   129   65  131 1    
   130   66   67 am   BACKBONE|DICT|INTERRES
   131   66   68 2    
   132   67  132 1    
   133   67  133 1    
   134   69   70 1    
   135   69  134 1    
   136   69  135 1    
   137   70   71 1    
   138   71  136 1    
   139   71  137 1    
@<TRIPOS>SUBSTRUCTURE
     1 UNK         1 GROUP             0       ****    0 ROOT    
