@<TRIPOS>MOLECULE
3R136
137   139    1
SMALL
USER_CHARGES


@<TRIPOS>ATOM
      1 CA         26.1476   23.1475    3.2985 C.3       0 UNK        -0.1979 
      2 C          26.8492   21.9681    2.6419 C.2       0 UNK         0.4864 
      3 O          27.1016   20.9592    3.3025 O.2       0 UNK        -0.5359 
      4 N          27.1676   22.0923    1.3509 N.am      1 UNK        -0.4318 
      5 CA         27.8734   21.0858    0.5560 C.3       1 UNK         0.0824 
      6 C6         29.4134   21.0757    0.7891 C.3       12 UNK        -0.0944 
      7 S7         30.1869   22.7360    0.7537 S.3       12 UNK        -0.2672 
      8 C8         30.8523   22.8589    2.4458 C.3       12 UNK         0.0333 
      9 C9         30.7456   24.2719    2.9971 C.ar      12 UNK        -0.0807 
     10 C10        31.5883   25.2817    2.5253 C.ar      12 UNK        -0.0894 
     11 C11        31.5238   26.5707    3.0647 C.ar      12 UNK        -0.0804 
     12 C12        30.6087   26.8469    4.0846 C.ar      12 UNK        -0.0824 
     13 C13        29.7426   25.8501    4.5449 C.ar      12 UNK        -0.0762 
     14 C14        29.8183   24.5649    4.0010 C.ar      12 UNK        -0.0782 
     15 C15        28.7111   26.1583    5.6185 C.3       12 UNK         0.0230 
     16 S16        27.0572   26.3955    4.8949 S.3       12 UNK        -0.2608 
     17 C17        27.2656   27.9794    4.0128 C.3       12 UNK        -0.0989 
     18 CA         27.5482   27.8089    2.4913 C.3       5 UNK         0.0716 
     19 N          26.5229   27.0245    1.7908 N.am      5 UNK        -0.4135 
     20 C          25.2381   27.3558    1.6032 C.2       4 UNK         0.5031 
     21 O          24.7414   28.4253    1.9614 O.2       4 UNK        -0.5229 
     22 CA         24.3701   26.3104    0.8728 C.3       4 UNK         0.0329 
     23 CB         22.8866   26.7187    0.7971 C.3       4 UNK        -0.2001 
     24 N          24.8573   26.0453   -0.4838 N.am      4 UNK        -0.4303 
     25 C          25.9083   25.2766   -0.7887 C.2       3 UNK         0.5044 
     26 O          26.5972   24.6926    0.0572 O.2       3 UNK        -0.5152 
     27 CA         26.2652   25.1698   -2.2767 C.3       3 UNK         0.0319 
     28 CB         26.9287   26.4582   -2.7896 C.3       3 UNK        -0.2001 
     29 N          27.1890   24.0561   -2.4292 N.am      3 UNK        -0.4354 
     30 C          27.1946   23.1576   -3.4186 C.2       2 UNK         0.4964 
     31 O          26.5178   23.2542   -4.4430 O.2       2 UNK        -0.5047 
     32 CA         28.0926   21.9223   -3.2141 C.3       2 UNK         0.0288 
     33 CB         29.4318   22.1006   -3.9477 C.3       2 UNK        -0.2113 
     34 N          28.3542   21.6259   -1.7998 N.am      2 UNK        -0.4145 
     35 C          27.4289   21.2405   -0.9079 C.2       1 UNK         0.5006 
     36 O          26.2508   21.0248   -1.2003 O.2       1 UNK        -0.5103 
     37 C          27.8209   29.1625    1.7968 C.2       5 UNK         0.5055 
     38 O          27.8977   30.1910    2.4698 O.2       5 UNK        -0.5220 
     39 N          27.9564   29.1458    0.4613 N.am      6 UNK        -0.4450 
     40 CA         28.0546   30.3376   -0.3936 C.3       6 UNK         0.0367 
     41 CB         28.1154   29.9120   -1.8691 C.3       6 UNK        -0.1929 
     42 C          29.2150   31.2952   -0.0635 C.2       6 UNK         0.5070 
     43 O          29.0301   32.5095   -0.1490 O.2       6 UNK        -0.5237 
     44 N          30.3772   30.7452    0.3163 N.am      7 UNK        -0.4739 
     45 CA         31.5522   31.5260    0.7288 C.3       7 UNK         0.0276 
     46 CB         32.8325   30.7812    0.3163 C.3       7 UNK        -0.1927 
     47 C          31.5576   31.8583    2.2350 C.2       7 UNK         0.5013 
     48 O          32.4177   32.6248    2.6726 O.2       7 UNK        -0.5193 
     49 N          30.6057   31.2900    2.9930 N.am      8 UNK        -0.4253 
     50 CA         30.3400   31.4996    4.4191 C.3       8 UNK         0.0242 
     51 CB         29.5523   32.8166    4.6039 C.3       8 UNK        -0.2000 
     52 C          31.6036   31.3870    5.2953 C.2       8 UNK         0.4948 
     53 O          32.2386   30.3309    5.3077 O.2       8 UNK        -0.5275 
     54 N          31.9521   32.4795    5.9888 N.am      9 UNK        -0.4246 
     55 CA         33.0721   32.6057    6.9248 C.3       9 UNK         0.0261 
     56 CB         32.9698   33.9673    7.6340 C.3       9 UNK        -0.1959 
     57 C          34.4747   32.4170    6.3152 C.2       9 UNK         0.5033 
     58 O          35.4356   32.3120    7.0796 O.2       9 UNK        -0.5390 
     59 N          34.5923   32.3679    4.9788 N.am      10 UNK        -0.4215 
     60 CA         35.8348   32.0121    4.2870 C.3       10 UNK         0.0240 
     61 CB         35.6953   32.3062    2.7866 C.3       10 UNK        -0.1982 
     62 C          36.2404   30.5424    4.5074 C.2       10 UNK         0.4970 
     63 O          37.4353   30.2442    4.4753 O.2       10 UNK        -0.4916 
     64 N          35.2564   29.6609    4.7305 N.am      11 UNK        -0.4279 
     65 CA         35.4735   28.2559    5.0916 C.3       11 UNK         0.1003 
     66 C          35.7028   28.1096    6.6180 C.2       11 UNK         0.5709 
     67 N          36.6453   27.2712    7.0274 N.am      11 UNK        -0.7358 
     68 O          35.0105   28.7157    7.4336 O.2       11 UNK        -0.4999 
     69 C69        34.3033   27.3606    4.6186 C.3       12 UNK        -0.0954 
     70 S70        34.1892   27.3063    2.7992 S.3       12 UNK        -0.2268 
     71 C71        32.4280   27.6701    2.5295 C.3       12 UNK         0.0203 
     72 H72        25.0778   22.9560    3.3740 H         1 UNK         0.0888 
     73 H73        26.5376   23.3083    4.3032 H         1 UNK         0.0888 
     74 H74        26.2943   24.0676    2.7340 H         1 UNK         0.0888 
     75 H75        26.9274   22.9474    0.8547 H         1 UNK         0.3017 
     76 H76        27.4988   20.1030    0.8513 H         1 UNK         0.0873 
     77 H77        29.9182   20.4325    0.0658 H         1 UNK         0.0745 
     78 H78        29.6114   20.6022    1.7509 H         1 UNK         0.0745 
     79 H79        30.3295   22.1721    3.1124 H         1 UNK         0.0705 
     80 H80        31.8963   22.5428    2.4418 H         1 UNK         0.0705 
     81 H81        32.3006   25.0622    1.7414 H         1 UNK         0.1334 
     82 H82        30.5576   27.8423    4.5052 H         1 UNK         0.1417 
     83 H83        29.1522   23.7931    4.3622 H         1 UNK         0.1562 
     84 H84        28.9948   27.0416    6.1930 H         1 UNK         0.0748 
     85 H85        28.6693   25.3330    6.3309 H         1 UNK         0.0748 
     86 H86        28.0668   28.5430    4.4938 H         1 UNK         0.0940 
     87 H87        26.3604   28.5698    4.1661 H         1 UNK         0.0940 
     88 H88        28.4703   27.2384    2.3839 H         1 UNK         0.0703 
     89 H89        26.8246   26.1303    1.4165 H         1 UNK         0.3081 
     90 H90        24.4254   25.3863    1.4525 H         1 UNK         0.0719 
     91 H91        22.2830   25.9373    0.3350 H         1 UNK         0.0809 
     92 H92        22.7471   27.6354    0.2226 H         1 UNK         0.0809 
     93 H93        22.4782   26.8929    1.7936 H         1 UNK         0.0809 
     94 H94        24.3667   26.5130   -1.2328 H         1 UNK         0.2990 
     95 H95        25.3481   24.9747   -2.8368 H         1 UNK         0.0690 
     96 H96        27.2229   26.3607   -3.8349 H         1 UNK         0.0788 
     97 H97        27.8210   26.7102   -2.2153 H         1 UNK         0.0788 
     98 H98        26.2418   27.3024   -2.7278 H         1 UNK         0.0788 
     99 H99        27.7409   23.8685   -1.6021 H         1 UNK         0.2993 
    100 H100       27.5712   21.0658   -3.6471 H         1 UNK         0.0949 
    101 H101       30.0466   21.2031   -3.8758 H         1 UNK         0.0767 
    102 H102       29.2722   22.2980   -5.0088 H         1 UNK         0.0767 
    103 H103       30.0058   22.9355   -3.5432 H         1 UNK         0.0767 
    104 H104       29.2904   21.8045   -1.4609 H         1 UNK         0.3013 
    105 H105       27.8902   28.2569   -0.0114 H         1 UNK         0.3121 
    106 H106       27.1323   30.9044   -0.2488 H         1 UNK         0.0774 
    107 H107       28.2269   30.7786   -2.5226 H         1 UNK         0.0815 
    108 H108       28.9561   29.2459   -2.0664 H         1 UNK         0.0815 
    109 H109       27.1999   29.4053   -2.1708 H         1 UNK         0.0815 
    110 H110       30.4528   29.7386    0.3459 H         1 UNK         0.2987 
    111 H111       31.5483   32.4802    0.1967 H         1 UNK         0.0949 
    112 H112       33.0309   29.9190    0.9501 H         1 UNK         0.0806 
    113 H113       32.7826   30.4386   -0.7174 H         1 UNK         0.0806 
    114 H114       33.6974   31.4406    0.3885 H         1 UNK         0.0806 
    115 H115       29.9124   30.7231    2.5198 H         1 UNK         0.3010 
    116 H116       29.6886   30.6821    4.7314 H         1 UNK         0.0829 
    117 H117       28.6256   32.7931    4.0295 H         1 UNK         0.0813 
    118 H118       29.2704   32.9729    5.6461 H         1 UNK         0.0813 
    119 H119       30.1191   33.6865    4.2692 H         1 UNK         0.0813 
    120 H120       31.3784   33.3024    5.8732 H         1 UNK         0.3038 
    121 H121       32.9533   31.8209    7.6748 H         1 UNK         0.0769 
    122 H122       33.7605   34.0837    8.3767 H         1 UNK         0.0811 
    123 H123       32.0205   34.0729    8.1595 H         1 UNK         0.0811 
    124 H124       33.0605   34.7957    6.9303 H         1 UNK         0.0811 
    125 H125       33.7622   32.4761    4.4052 H         1 UNK         0.3204 
    126 H126       36.6339   32.6415    4.6846 H         1 UNK         0.0748 
    127 H127       36.6398   32.1398    2.2669 H         1 UNK         0.0771 
    128 H128       34.9519   31.6573    2.3252 H         1 UNK         0.0771 
    129 H129       35.4004   33.3400    2.6056 H         1 UNK         0.0771 
    130 H130       34.3001   29.9886    4.8042 H         1 UNK         0.2980 
    131 H131       36.3752   27.9053    4.5847 H         1 UNK         0.0545 
    132 H132       37.2111   26.7594    6.3683 H         1 UNK         0.3459 
    133 H133       36.7979   27.1521    8.0167 H         1 UNK         0.3459 
    134 H134       33.3609   27.7090    5.0453 H         1 UNK         0.0616 
    135 H135       34.4361   26.3344    4.9659 H         1 UNK         0.0616 
    136 H136       32.1888   28.6347    2.9803 H         1 UNK         0.0634 
    137 H137       32.2509   27.7714    1.4585 H         1 UNK         0.0634 
@<TRIPOS>BOND
     1    1    2 1    
     2    1   72 1    
     3    1   73 1    
     4    1   74 1    
     5    2    3 2    
     6    2    4 am   BACKBONE|DICT|INTERRES
     7    4    5 1    
     8    4   75 1    
     9    5    6 1    
    10    5   35 1    
    11    5   76 1    
    12    6    7 1    
    13    6   77 1    
    14    6   78 1    
    15    7    8 1    
    16    8    9 1    
    17    8   79 1    
    18    8   80 1    
    19    9   10 ar   
    20    9   14 ar   
    21   10   11 ar   
    22   10   81 1    
    23   11   12 ar   
    24   11   71 1    
    25   12   13 ar   
    26   12   82 1    
    27   13   14 ar   
    28   13   15 1    
    29   14   83 1    
    30   15   16 1    
    31   15   84 1    
    32   15   85 1    
    33   16   17 1    
    34   17   18 1    
    35   17   86 1    
    36   17   87 1    
    37   18   19 1    
    38   18   37 1    
    39   18   88 1    
    40   19   20 am   BACKBONE|DICT|INTERRES
    41   19   89 1    
    42   20   21 2    
    43   20   22 1    
    44   22   23 1    
    45   22   24 1    
    46   22   90 1    
    47   23   91 1    
    48   23   92 1    
    49   23   93 1    
    50   24   25 am   BACKBONE|DICT|INTERRES
    51   24   94 1    
    52   25   26 2    
    53   25   27 1    
    54   27   28 1    
    55   27   29 1    
    56   27   95 1    
    57   28   96 1    
    58   28   97 1    
    59   28   98 1    
    60   29   30 am   BACKBONE|DICT|INTERRES
    61   29   99 1    
    62   30   31 2    
    63   30   32 1    
    64   32   33 1    
    65   32   34 1    
    66   32  100 1    
    67   33  101 1    
    68   33  102 1    
    69   33  103 1    
    70   34   35 am   BACKBONE|DICT|INTERRES
    71   34  104 1    
    72   35   36 2    
    73   37   38 2    
    74   37   39 am   BACKBONE|DICT|INTERRES
    75   39   40 1    
    76   39  105 1    
    77   40   41 1    
    78   40   42 1    
    79   40  106 1    
    80   41  107 1    
    81   41  108 1    
    82   41  109 1    
    83   42   43 2    
    84   42   44 am   BACKBONE|DICT|INTERRES
    85   44   45 1    
    86   44  110 1    
    87   45   46 1    
    88   45   47 1    
    89   45  111 1    
    90   46  112 1    
    91   46  113 1    
    92   46  114 1    
    93   47   48 2    
    94   47   49 am   BACKBONE|DICT|INTERRES
    95   49   50 1    
    96   49  115 1    
    97   50   51 1    
    98   50   52 1    
    99   50  116 1    
   100   51  117 1    
   101   51  118 1    
   102   51  119 1    
   103   52   53 2    
   104   52   54 am   BACKBONE|DICT|INTERRES
   105   54   55 1    
   106   54  120 1    
   107   55   56 1    
   108   55   57 1    
   109   55  121 1    
   110   56  122 1    
   111   56  123 1    
   112   56  124 1    
   113   57   58 2    
   114   57   59 am   BACKBONE|DICT|INTERRES
   115   59   60 1    
   116   59  125 1    
   117   60   61 1    
   118   60   62 1    
   119   60  126 1    
   120   61  127 1    
   121   61  128 1    
   122   61  129 1    
   123   62   63 2    
   124   62   64 am   BACKBONE|DICT|INTERRES
   125   64   65 1    
   126   64  130 1    
   127   65   66 1    
   128   65   69 1    
   129   65  131 1    
   130   66   67 am   BACKBONE|DICT|INTERRES
   131   66   68 2    
   132   67  132 1    
   133   67  133 1    
   134   69   70 1    
   135   69  134 1    
   136   69  135 1    
   137   70   71 1    
   138   71  136 1    
   139   71  137 1    
@<TRIPOS>SUBSTRUCTURE
     1 UNK         1 GROUP             0       ****    0 ROOT    
