@<TRIPOS>MOLECULE
3R136
137   139    1
SMALL
USER_CHARGES


@<TRIPOS>ATOM
      1 CA         29.3163   21.8719    4.1264 C.3       0 UNK        -0.1979 
      2 C          28.9191   21.5189    2.7009 C.2       0 UNK         0.4864 
      3 O          27.9464   20.7908    2.5003 O.2       0 UNK        -0.5359 
      4 N          29.6732   22.0227    1.7141 N.am      1 UNK        -0.4318 
      5 CA         29.4999   21.7533    0.2800 C.3       1 UNK         0.0824 
      6 C6         30.6388   22.3659   -0.5766 C.3       12 UNK        -0.0944 
      7 S7         32.3121   21.8313   -0.0779 S.3       12 UNK        -0.2672 
      8 C8         33.1207   23.4162    0.3216 C.3       12 UNK         0.0333 
      9 C9         32.8846   23.8165    1.7703 C.ar      12 UNK        -0.0807 
     10 C10        33.8441   23.5203    2.7426 C.ar      12 UNK        -0.0894 
     11 C11        33.6372   23.8747    4.0791 C.ar      12 UNK        -0.0804 
     12 C12        32.4529   24.5220    4.4436 C.ar      12 UNK        -0.0824 
     13 C13        31.4821   24.8151    3.4801 C.ar      12 UNK        -0.0762 
     14 C14        31.7117   24.4776    2.1431 C.ar      12 UNK        -0.0782 
     15 C15        30.1658   25.4546    3.8916 C.3       12 UNK         0.0230 
     16 S16        30.2669   27.2661    3.9564 S.3       12 UNK        -0.2608 
     17 C17        30.4782   27.7362    2.2007 C.3       12 UNK        -0.0989 
     18 CA         29.2164   27.4742    1.3347 C.3       5 UNK         0.0716 
     19 N          27.9877   28.0069    1.9304 N.am      5 UNK        -0.4135 
     20 C          27.6580   29.2977    2.0898 C.2       4 UNK         0.5031 
     21 O          28.4079   30.2316    1.7987 O.2       4 UNK        -0.5229 
     22 CA         26.2361   29.5969    2.6145 C.3       4 UNK         0.0329 
     23 CB         25.6718   30.9079    2.0276 C.3       4 UNK        -0.2001 
     24 N          25.2852   28.4891    2.4176 N.am      4 UNK        -0.4303 
     25 C          24.9738   27.8943    1.2559 C.2       3 UNK         0.5044 
     26 O          25.4016   28.2535    0.1549 O.2       3 UNK        -0.5152 
     27 CA         24.1070   26.6277    1.3529 C.3       3 UNK         0.0319 
     28 CB         22.6834   26.9054    0.8454 C.3       3 UNK        -0.2001 
     29 N          24.6941   25.5265    0.5832 N.am      3 UNK        -0.4354 
     30 C          25.9095   24.9998    0.7923 C.2       2 UNK         0.4964 
     31 O          26.6506   25.3152    1.7293 O.2       2 UNK        -0.5047 
     32 CA         26.3954   23.9931   -0.2561 C.3       2 UNK         0.0288 
     33 CB         26.7026   24.7139   -1.5852 C.3       2 UNK        -0.2113 
     34 N          27.6004   23.3263    0.2326 N.am      2 UNK        -0.4145 
     35 C          28.1401   22.2164   -0.2883 C.2       1 UNK         0.5006 
     36 O          27.6269   21.5765   -1.2084 O.2       1 UNK        -0.5103 
     37 C          29.3964   27.9011   -0.1422 C.2       5 UNK         0.5055 
     38 O          30.5292   27.9475   -0.6231 O.2       5 UNK        -0.5220 
     39 N          28.2810   28.2184   -0.8263 N.am      6 UNK        -0.4450 
     40 CA         28.1950   28.8042   -2.1714 C.3       6 UNK         0.0367 
     41 CB         28.6964   27.8160   -3.2472 C.3       6 UNK        -0.1929 
     42 C          28.8620   30.1935   -2.2845 C.2       6 UNK         0.5070 
     43 O          29.2615   30.5897   -3.3810 O.2       6 UNK        -0.5237 
     44 N          28.9696   30.9147   -1.1620 N.am      7 UNK        -0.4739 
     45 CA         29.5989   32.2265   -1.0567 C.3       7 UNK         0.0276 
     46 CB         31.1248   32.0564   -0.8781 C.3       7 UNK        -0.1927 
     47 C          28.9001   32.9969    0.0728 C.2       7 UNK         0.5013 
     48 O          27.6921   33.2236   -0.0164 O.2       7 UNK        -0.5193 
     49 N          29.6532   33.3692    1.1123 N.am      8 UNK        -0.4253 
     50 CA         29.1648   34.0066    2.3321 C.3       8 UNK         0.0242 
     51 CB         29.3974   35.5281    2.2518 C.3       8 UNK        -0.2000 
     52 C          29.8560   33.3424    3.5317 C.2       8 UNK         0.4948 
     53 O          30.4980   34.0283    4.3295 O.2       8 UNK        -0.5275 
     54 N          29.7224   32.0096    3.6013 N.am      9 UNK        -0.4246 
     55 CA         30.3596   31.0661    4.5267 C.3       9 UNK         0.0261 
     56 CB         30.1416   31.4582    6.0039 C.3       9 UNK        -0.1959 
     57 C          31.8455   30.8163    4.2046 C.2       9 UNK         0.5033 
     58 O          32.4706   31.5652    3.4494 O.2       9 UNK        -0.5390 
     59 N          32.3741   29.7351    4.7826 N.am      10 UNK        -0.4215 
     60 CA         33.7398   29.2400    4.6531 C.3       10 UNK         0.0240 
     61 CB         33.9162   28.4984    3.3129 C.3       10 UNK        -0.1982 
     62 C          34.0053   28.2991    5.8353 C.2       10 UNK         0.4970 
     63 O          33.0561   27.8840    6.5072 O.2       10 UNK        -0.4916 
     64 N          35.2859   27.9811    6.0612 N.am      11 UNK        -0.4279 
     65 CA         35.7745   27.0763    7.1201 C.3       11 UNK         0.1003 
     66 C          35.5593   27.5954    8.5768 C.2       11 UNK         0.5709 
     67 N          35.3154   28.8834    8.7898 N.am      11 UNK        -0.7358 
     68 O          35.6508   26.8319    9.5358 O.2       11 UNK        -0.4999 
     69 C69        35.2997   25.6055    6.9256 C.3       12 UNK        -0.0954 
     70 S70        35.8776   24.8847    5.3532 S.3       12 UNK        -0.2268 
     71 C71        34.6867   23.5285    5.1243 C.3       12 UNK         0.0203 
     72 H72        29.2378   20.9942    4.7676 H         1 UNK         0.0888 
     73 H73        30.3428   22.2331    4.1830 H         1 UNK         0.0888 
     74 H74        28.6553   22.6427    4.5215 H         1 UNK         0.0888 
     75 H75        30.4947   22.5609    1.9525 H         1 UNK         0.3017 
     76 H76        29.5363   20.6683    0.1595 H         1 UNK         0.0873 
     77 H77        30.5811   23.4554   -0.5679 H         1 UNK         0.0745 
     78 H78        30.5153   22.0760   -1.6223 H         1 UNK         0.0745 
     79 H79        32.7797   24.2023   -0.3538 H         1 UNK         0.0705 
     80 H80        34.1910   23.3113    0.1372 H         1 UNK         0.0705 
     81 H81        34.7547   23.0097    2.4597 H         1 UNK         0.1334 
     82 H82        32.2827   24.7912    5.4773 H         1 UNK         0.1417 
     83 H83        30.9715   24.7190    1.3938 H         1 UNK         0.1562 
     84 H84        29.8817   25.0934    4.8811 H         1 UNK         0.0748 
     85 H85        29.3587   25.1492    3.2250 H         1 UNK         0.0748 
     86 H86        31.3451   27.2130    1.7959 H         1 UNK         0.0940 
     87 H87        30.7377   28.7955    2.1688 H         1 UNK         0.0940 
     88 H88        29.0724   26.3957    1.2858 H         1 UNK         0.0703 
     89 H89        27.3054   27.3007    2.1810 H         1 UNK         0.3081 
     90 H90        26.3364   29.7302    3.6926 H         1 UNK         0.0719 
     91 H91        24.6725   31.1170    2.4089 H         1 UNK         0.0809 
     92 H92        25.6159   30.8731    0.9390 H         1 UNK         0.0809 
     93 H93        26.3010   31.7598    2.2892 H         1 UNK         0.0809 
     94 H94        24.8933   28.1025    3.2660 H         1 UNK         0.2990 
     95 H95        24.0489   26.3098    2.3960 H         1 UNK         0.0690 
     96 H96        22.0475   26.0252    0.9421 H         1 UNK         0.0788 
     97 H97        22.6807   27.2094   -0.2024 H         1 UNK         0.0788 
     98 H98        22.2145   27.7070    1.4179 H         1 UNK         0.0788 
     99 H99        24.1755   25.2294   -0.2306 H         1 UNK         0.2993 
    100 H100       25.6110   23.2480   -0.4060 H         1 UNK         0.0949 
    101 H101       27.5174   25.4274   -1.4636 H         1 UNK         0.0767 
    102 H102       26.9895   24.0116   -2.3678 H         1 UNK         0.0767 
    103 H103       25.8375   25.2652   -1.9557 H         1 UNK         0.0767 
    104 H104       28.0221   23.7652    1.0406 H         1 UNK         0.3013 
    105 H105       27.3897   28.1538   -0.3421 H         1 UNK         0.3121 
    106 H106       27.1324   28.9726   -2.3530 H         1 UNK         0.0774 
    107 H107       28.5232   28.2082   -4.2500 H         1 UNK         0.0815 
    108 H108       29.7657   27.6243   -3.1565 H         1 UNK         0.0815 
    109 H109       28.1762   26.8615   -3.1881 H         1 UNK         0.0815 
    110 H110       28.5961   30.5452   -0.2933 H         1 UNK         0.2987 
    111 H111       29.4164   32.7921   -1.9731 H         1 UNK         0.0949 
    112 H112       31.5630   31.5485   -1.7376 H         1 UNK         0.0806 
    113 H113       31.6271   33.0211   -0.7943 H         1 UNK         0.0806 
    114 H114       31.3695   31.4660    0.0065 H         1 UNK         0.0806 
    115 H115       30.6298   33.1069    1.1184 H         1 UNK         0.3010 
    116 H116       28.0937   33.8266    2.4489 H         1 UNK         0.0829 
    117 H117       28.8685   35.9643    1.4044 H         1 UNK         0.0813 
    118 H118       29.0348   36.0268    3.1515 H         1 UNK         0.0813 
    119 H119       30.4560   35.7689    2.1465 H         1 UNK         0.0813 
    120 H120       29.2051   31.5536    2.8512 H         1 UNK         0.3038 
    121 H121       29.8375   30.1239    4.3603 H         1 UNK         0.0769 
    122 H122       30.7317   32.3302    6.2867 H         1 UNK         0.0811 
    123 H123       29.0938   31.6810    6.2054 H         1 UNK         0.0811 
    124 H124       30.4314   30.6466    6.6719 H         1 UNK         0.0811 
    125 H125       31.8098   29.1676    5.4059 H         1 UNK         0.3204 
    126 H126       34.4304   30.0838    4.7088 H         1 UNK         0.0748 
    127 H127       34.9517   28.1886    3.1686 H         1 UNK         0.0771 
    128 H128       33.3025   27.5975    3.2707 H         1 UNK         0.0771 
    129 H129       33.6468   29.1280    2.4648 H         1 UNK         0.0771 
    130 H130       35.9992   28.3740    5.4645 H         1 UNK         0.2980 
    131 H131       36.8592   27.0725    7.0082 H         1 UNK         0.0545 
    132 H132       35.1903   29.2113    9.7345 H         1 UNK         0.3459 
    133 H133       35.2523   29.5275    8.0184 H         1 UNK         0.3459 
    134 H134       35.6817   24.9655    7.7226 H         1 UNK         0.0616 
    135 H135       34.2122   25.5423    6.9802 H         1 UNK         0.0616 
    136 H136       34.2106   23.2736    6.0723 H         1 UNK         0.0634 
    137 H137       35.2345   22.6365    4.8166 H         1 UNK         0.0634 
@<TRIPOS>BOND
     1    1    2 1    
     2    1   72 1    
     3    1   73 1    
     4    1   74 1    
     5    2    3 2    
     6    2    4 am   BACKBONE|DICT|INTERRES
     7    4    5 1    
     8    4   75 1    
     9    5    6 1    
    10    5   35 1    
    11    5   76 1    
    12    6    7 1    
    13    6   77 1    
    14    6   78 1    
    15    7    8 1    
    16    8    9 1    
    17    8   79 1    
    18    8   80 1    
    19    9   10 ar   
    20    9   14 ar   
    21   10   11 ar   
    22   10   81 1    
    23   11   12 ar   
    24   11   71 1    
    25   12   13 ar   
    26   12   82 1    
    27   13   14 ar   
    28   13   15 1    
    29   14   83 1    
    30   15   16 1    
    31   15   84 1    
    32   15   85 1    
    33   16   17 1    
    34   17   18 1    
    35   17   86 1    
    36   17   87 1    
    37   18   19 1    
    38   18   37 1    
    39   18   88 1    
    40   19   20 am   BACKBONE|DICT|INTERRES
    41   19   89 1    
    42   20   21 2    
    43   20   22 1    
    44   22   23 1    
    45   22   24 1    
    46   22   90 1    
    47   23   91 1    
    48   23   92 1    
    49   23   93 1    
    50   24   25 am   BACKBONE|DICT|INTERRES
    51   24   94 1    
    52   25   26 2    
    53   25   27 1    
    54   27   28 1    
    55   27   29 1    
    56   27   95 1    
    57   28   96 1    
    58   28   97 1    
    59   28   98 1    
    60   29   30 am   BACKBONE|DICT|INTERRES
    61   29   99 1    
    62   30   31 2    
    63   30   32 1    
    64   32   33 1    
    65   32   34 1    
    66   32  100 1    
    67   33  101 1    
    68   33  102 1    
    69   33  103 1    
    70   34   35 am   BACKBONE|DICT|INTERRES
    71   34  104 1    
    72   35   36 2    
    73   37   38 2    
    74   37   39 am   BACKBONE|DICT|INTERRES
    75   39   40 1    
    76   39  105 1    
    77   40   41 1    
    78   40   42 1    
    79   40  106 1    
    80   41  107 1    
    81   41  108 1    
    82   41  109 1    
    83   42   43 2    
    84   42   44 am   BACKBONE|DICT|INTERRES
    85   44   45 1    
    86   44  110 1    
    87   45   46 1    
    88   45   47 1    
    89   45  111 1    
    90   46  112 1    
    91   46  113 1    
    92   46  114 1    
    93   47   48 2    
    94   47   49 am   BACKBONE|DICT|INTERRES
    95   49   50 1    
    96   49  115 1    
    97   50   51 1    
    98   50   52 1    
    99   50  116 1    
   100   51  117 1    
   101   51  118 1    
   102   51  119 1    
   103   52   53 2    
   104   52   54 am   BACKBONE|DICT|INTERRES
   105   54   55 1    
   106   54  120 1    
   107   55   56 1    
   108   55   57 1    
   109   55  121 1    
   110   56  122 1    
   111   56  123 1    
   112   56  124 1    
   113   57   58 2    
   114   57   59 am   BACKBONE|DICT|INTERRES
   115   59   60 1    
   116   59  125 1    
   117   60   61 1    
   118   60   62 1    
   119   60  126 1    
   120   61  127 1    
   121   61  128 1    
   122   61  129 1    
   123   62   63 2    
   124   62   64 am   BACKBONE|DICT|INTERRES
   125   64   65 1    
   126   64  130 1    
   127   65   66 1    
   128   65   69 1    
   129   65  131 1    
   130   66   67 am   BACKBONE|DICT|INTERRES
   131   66   68 2    
   132   67  132 1    
   133   67  133 1    
   134   69   70 1    
   135   69  134 1    
   136   69  135 1    
   137   70   71 1    
   138   71  136 1    
   139   71  137 1    
@<TRIPOS>SUBSTRUCTURE
     1 UNK         1 GROUP             0       ****    0 ROOT    
