@<TRIPOS>MOLECULE
3R136
137   139    1
SMALL
USER_CHARGES


@<TRIPOS>ATOM
      1 CA         27.9101   20.4191    1.6322 C.3       0 UNK        -0.1979 
      2 C          27.6230   20.7569    0.1767 C.2       0 UNK         0.4864 
      3 O          26.7260   20.1629   -0.4242 O.2       0 UNK        -0.5359 
      4 N          28.3852   21.6988   -0.3922 N.am      1 UNK        -0.4318 
      5 CA         28.2096   22.2214   -1.7501 C.3       1 UNK         0.0824 
      6 C6         29.5740   22.6374   -2.3682 C.3       12 UNK        -0.0944 
      7 S7         30.3692   24.0525   -1.5253 S.3       12 UNK        -0.2672 
      8 C8         31.8112   23.2895   -0.7199 C.3       12 UNK         0.0333 
      9 C9         31.9508   23.7737    0.7147 C.ar      12 UNK        -0.0807 
     10 C10        32.4805   25.0395    0.9856 C.ar      12 UNK        -0.0894 
     11 C11        32.6265   25.4803    2.3051 C.ar      12 UNK        -0.0804 
     12 C12        32.2569   24.6364    3.3564 C.ar      12 UNK        -0.0824 
     13 C13        31.6772   23.3920    3.0956 C.ar      12 UNK        -0.0762 
     14 C14        31.5442   22.9576    1.7740 C.ar      12 UNK        -0.0782 
     15 C15        31.1579   22.5279    4.2338 C.3       12 UNK         0.0230 
     16 S16        29.3474   22.6759    4.3892 S.3       12 UNK        -0.2608 
     17 C17        29.1517   24.2455    5.3050 C.3       12 UNK        -0.0989 
     18 CA         29.0308   25.5049    4.4001 C.3       5 UNK         0.0716 
     19 N          28.0274   25.3912    3.3419 N.am      5 UNK        -0.4135 
     20 C          26.6956   25.4027    3.4762 C.2       4 UNK         0.5031 
     21 O          26.1127   25.3565    4.5607 O.2       4 UNK        -0.5229 
     22 CA         25.8784   25.5214    2.1722 C.3       4 UNK         0.0329 
     23 CB         24.6296   26.4084    2.3586 C.3       4 UNK        -0.2001 
     24 N          26.6496   25.9771    1.0028 N.am      4 UNK        -0.4303 
     25 C          27.3238   27.1327    0.8590 C.2       3 UNK         0.5044 
     26 O          27.4661   27.9559    1.7662 O.2       3 UNK        -0.5152 
     27 CA         28.0226   27.4012   -0.4886 C.3       3 UNK         0.0319 
     28 CB         29.5486   27.3947   -0.2949 C.3       3 UNK        -0.2001 
     29 N          27.6634   26.4516   -1.5450 N.am      3 UNK        -0.4354 
     30 C          26.4782   26.4181   -2.1752 C.2       2 UNK         0.4964 
     31 O          25.5969   27.2615   -2.0086 O.2       2 UNK        -0.5047 
     32 CA         26.2059   25.2337   -3.1268 C.3       2 UNK         0.0288 
     33 CB         26.3350   25.6834   -4.5915 C.3       2 UNK        -0.2113 
     34 N          27.0599   24.0576   -2.9126 N.am      2 UNK        -0.4145 
     35 C          27.1584   23.3577   -1.7719 C.2       1 UNK         0.5006 
     36 O          26.5010   23.6260   -0.7613 O.2       1 UNK        -0.5103 
     37 C          28.8959   26.8171    5.2083 C.2       5 UNK         0.5055 
     38 O          29.1591   26.8133    6.4131 O.2       5 UNK        -0.5220 
     39 N          28.4881   27.9130    4.5473 N.am      6 UNK        -0.4450 
     40 CA         28.2557   29.2055    5.1941 C.3       6 UNK         0.0367 
     41 CB         26.8003   29.2705    5.6920 C.3       6 UNK        -0.1929 
     42 C          28.5757   30.4237    4.3152 C.2       6 UNK         0.5070 
     43 O          28.8439   31.4831    4.8789 O.2       6 UNK        -0.5237 
     44 N          28.4995   30.3074    2.9816 N.am      7 UNK        -0.4739 
     45 CA         28.6230   31.4556    2.0778 C.3       7 UNK         0.0276 
     46 CB         27.7942   31.2075    0.8064 C.3       7 UNK        -0.1927 
     47 C          30.0781   31.8071    1.7289 C.2       7 UNK         0.5013 
     48 O          30.5131   32.9251    2.0112 O.2       7 UNK        -0.5193 
     49 N          30.7794   30.8698    1.0741 N.am      8 UNK        -0.4253 
     50 CA         32.0759   31.0612    0.4109 C.3       8 UNK         0.0242 
     51 CB         32.4587   29.7697   -0.3320 C.3       8 UNK        -0.2000 
     52 C          33.1874   31.5112    1.3734 C.2       8 UNK         0.4948 
     53 O          33.7353   30.6843    2.1029 O.2       8 UNK        -0.5275 
     54 N          33.4579   32.8261    1.3939 N.am      9 UNK        -0.4246 
     55 CA         34.3519   33.5277    2.3287 C.3       9 UNK         0.0261 
     56 CB         35.8265   33.1739    2.0399 C.3       9 UNK        -0.1959 
     57 C          33.9621   33.3032    3.8062 C.2       9 UNK         0.5033 
     58 O          34.8388   33.2075    4.6670 O.2       9 UNK        -0.5390 
     59 N          32.6495   33.1640    4.0540 N.am      10 UNK        -0.4215 
     60 CA         32.0000   32.7669    5.3097 C.3       10 UNK         0.0240 
     61 CB         32.3065   33.7689    6.4435 C.3       10 UNK        -0.1982 
     62 C          32.2684   31.3066    5.7419 C.2       10 UNK         0.4970 
     63 O          31.7924   30.9121    6.8074 O.2       10 UNK        -0.4916 
     64 N          33.0162   30.5345    4.9374 N.am      11 UNK        -0.4279 
     65 CA         33.4745   29.1606    5.2034 C.3       11 UNK         0.1003 
     66 C          34.2796   28.9799    6.5278 C.2       11 UNK         0.5709 
     67 N          34.9644   30.0083    7.0159 N.am      11 UNK        -0.7358 
     68 O          34.3200   27.8954    7.1045 O.2       11 UNK        -0.4999 
     69 C69        32.3536   28.1041    4.9862 C.3       12 UNK        -0.0954 
     70 S70        31.8744   27.9894    3.2282 S.3       12 UNK        -0.2268 
     71 C71        33.1708   26.8711    2.5939 C.3       12 UNK         0.0203 
     72 H72        27.1150   20.8034    2.2707 H         1 UNK         0.0888 
     73 H73        27.9646   19.3390    1.7660 H         1 UNK         0.0888 
     74 H74        28.8537   20.8466    1.9694 H         1 UNK         0.0888 
     75 H75        29.0707   22.1872    0.1643 H         1 UNK         0.3017 
     76 H76        27.8037   21.4238   -2.3763 H         1 UNK         0.0873 
     77 H77        30.2477   21.7797   -2.3721 H         1 UNK         0.0745 
     78 H78        29.4579   22.8961   -3.4217 H         1 UNK         0.0745 
     79 H79        32.7095   23.5411   -1.2856 H         1 UNK         0.0705 
     80 H80        31.7355   22.2017   -0.7383 H         1 UNK         0.0705 
     81 H81        32.7704   25.6826    0.1657 H         1 UNK         0.1334 
     82 H82        32.3650   24.9736    4.3776 H         1 UNK         0.1417 
     83 H83        31.1130   21.9867    1.5738 H         1 UNK         0.1562 
     84 H84        31.6400   22.7865    5.1778 H         1 UNK         0.0748 
     85 H85        31.4099   21.4842    4.0402 H         1 UNK         0.0748 
     86 H86        29.9895   24.3506    5.9965 H         1 UNK         0.0940 
     87 H87        28.2616   24.1529    5.9299 H         1 UNK         0.0940 
     88 H88        29.9674   25.6244    3.8661 H         1 UNK         0.0703 
     89 H89        28.3916   25.4078    2.4015 H         1 UNK         0.3081 
     90 H90        25.5399   24.5116    1.9352 H         1 UNK         0.0719 
     91 H91        24.8966   27.4216    2.6615 H         1 UNK         0.0809 
     92 H92        24.0500   26.4753    1.4378 H         1 UNK         0.0809 
     93 H93        23.9690   26.0031    3.1260 H         1 UNK         0.0809 
     94 H94        26.6402   25.3291    0.2196 H         1 UNK         0.2990 
     95 H95        27.7202   28.3949   -0.8212 H         1 UNK         0.0690 
     96 H96        30.0727   27.5886   -1.2307 H         1 UNK         0.0788 
     97 H97        29.9021   26.4412    0.0979 H         1 UNK         0.0788 
     98 H98        29.8573   28.1602    0.4162 H         1 UNK         0.0788 
     99 H99        28.3382   25.7270   -1.7489 H         1 UNK         0.2993 
    100 H100       25.1740   24.9210   -2.9529 H         1 UNK         0.0949 
    101 H101       26.0442   24.8888   -5.2790 H         1 UNK         0.0767 
    102 H102       25.6884   26.5379   -4.7971 H         1 UNK         0.0767 
    103 H103       27.3560   25.9820   -4.8331 H         1 UNK         0.0767 
    104 H104       27.6403   23.7858   -3.6929 H         1 UNK         0.3013 
    105 H105       28.2607   27.8435    3.5602 H         1 UNK         0.3121 
    106 H106       28.9168   29.2936    6.0596 H         1 UNK         0.0774 
    107 H107       26.5918   30.2260    6.1753 H         1 UNK         0.0815 
    108 H108       26.0919   29.1557    4.8705 H         1 UNK         0.0815 
    109 H109       26.5952   28.4876    6.4222 H         1 UNK         0.0815 
    110 H110       28.2056   29.4283    2.5634 H         1 UNK         0.2987 
    111 H111       28.1906   32.3330    2.5653 H         1 UNK         0.0949 
    112 H112       27.8183   32.0784    0.1500 H         1 UNK         0.0806 
    113 H113       28.1683   30.3609    0.2341 H         1 UNK         0.0806 
    114 H114       26.7489   31.0119    1.0465 H         1 UNK         0.0806 
    115 H115       30.3536   29.9636    0.9604 H         1 UNK         0.3010 
    116 H116       31.9447   31.8417   -0.3415 H         1 UNK         0.0829 
    117 H117       31.7485   29.5442   -1.1274 H         1 UNK         0.0813 
    118 H118       33.4424   29.8604   -0.7945 H         1 UNK         0.0813 
    119 H119       32.4931   28.9127    0.3398 H         1 UNK         0.0813 
    120 H120       32.9184   33.4247    0.7827 H         1 UNK         0.3038 
    121 H121       34.2228   34.5945    2.1402 H         1 UNK         0.0769 
    122 H122       36.5008   33.7826    2.6437 H         1 UNK         0.0811 
    123 H123       36.0802   33.3515    0.9950 H         1 UNK         0.0811 
    124 H124       36.0434   32.1291    2.2650 H         1 UNK         0.0811 
    125 H125       32.0156   33.2271    3.2599 H         1 UNK         0.3204 
    126 H126       30.9329   32.8344    5.1075 H         1 UNK         0.0748 
    127 H127       31.6820   33.5718    7.3158 H         1 UNK         0.0771 
    128 H128       33.3443   33.7097    6.7719 H         1 UNK         0.0771 
    129 H129       32.1092   34.7945    6.1318 H         1 UNK         0.0771 
    130 H130       33.3322   30.9087    4.0491 H         1 UNK         0.2980 
    131 H131       34.2306   28.9764    4.4399 H         1 UNK         0.0545 
    132 H132       34.9539   30.8989    6.5427 H         1 UNK         0.3459 
    133 H133       35.4938   29.8913    7.8652 H         1 UNK         0.3459 
    134 H134       32.6633   27.1123    5.3162 H         1 UNK         0.0616 
    135 H135       31.4741   28.3577    5.5789 H         1 UNK         0.0616 
    136 H136       33.5944   27.3108    1.6905 H         1 UNK         0.0634 
    137 H137       33.9964   26.7974    3.3025 H         1 UNK         0.0634 
@<TRIPOS>BOND
     1    1    2 1    
     2    1   72 1    
     3    1   73 1    
     4    1   74 1    
     5    2    3 2    
     6    2    4 am   BACKBONE|DICT|INTERRES
     7    4    5 1    
     8    4   75 1    
     9    5    6 1    
    10    5   35 1    
    11    5   76 1    
    12    6    7 1    
    13    6   77 1    
    14    6   78 1    
    15    7    8 1    
    16    8    9 1    
    17    8   79 1    
    18    8   80 1    
    19    9   10 ar   
    20    9   14 ar   
    21   10   11 ar   
    22   10   81 1    
    23   11   12 ar   
    24   11   71 1    
    25   12   13 ar   
    26   12   82 1    
    27   13   14 ar   
    28   13   15 1    
    29   14   83 1    
    30   15   16 1    
    31   15   84 1    
    32   15   85 1    
    33   16   17 1    
    34   17   18 1    
    35   17   86 1    
    36   17   87 1    
    37   18   19 1    
    38   18   37 1    
    39   18   88 1    
    40   19   20 am   BACKBONE|DICT|INTERRES
    41   19   89 1    
    42   20   21 2    
    43   20   22 1    
    44   22   23 1    
    45   22   24 1    
    46   22   90 1    
    47   23   91 1    
    48   23   92 1    
    49   23   93 1    
    50   24   25 am   BACKBONE|DICT|INTERRES
    51   24   94 1    
    52   25   26 2    
    53   25   27 1    
    54   27   28 1    
    55   27   29 1    
    56   27   95 1    
    57   28   96 1    
    58   28   97 1    
    59   28   98 1    
    60   29   30 am   BACKBONE|DICT|INTERRES
    61   29   99 1    
    62   30   31 2    
    63   30   32 1    
    64   32   33 1    
    65   32   34 1    
    66   32  100 1    
    67   33  101 1    
    68   33  102 1    
    69   33  103 1    
    70   34   35 am   BACKBONE|DICT|INTERRES
    71   34  104 1    
    72   35   36 2    
    73   37   38 2    
    74   37   39 am   BACKBONE|DICT|INTERRES
    75   39   40 1    
    76   39  105 1    
    77   40   41 1    
    78   40   42 1    
    79   40  106 1    
    80   41  107 1    
    81   41  108 1    
    82   41  109 1    
    83   42   43 2    
    84   42   44 am   BACKBONE|DICT|INTERRES
    85   44   45 1    
    86   44  110 1    
    87   45   46 1    
    88   45   47 1    
    89   45  111 1    
    90   46  112 1    
    91   46  113 1    
    92   46  114 1    
    93   47   48 2    
    94   47   49 am   BACKBONE|DICT|INTERRES
    95   49   50 1    
    96   49  115 1    
    97   50   51 1    
    98   50   52 1    
    99   50  116 1    
   100   51  117 1    
   101   51  118 1    
   102   51  119 1    
   103   52   53 2    
   104   52   54 am   BACKBONE|DICT|INTERRES
   105   54   55 1    
   106   54  120 1    
   107   55   56 1    
   108   55   57 1    
   109   55  121 1    
   110   56  122 1    
   111   56  123 1    
   112   56  124 1    
   113   57   58 2    
   114   57   59 am   BACKBONE|DICT|INTERRES
   115   59   60 1    
   116   59  125 1    
   117   60   61 1    
   118   60   62 1    
   119   60  126 1    
   120   61  127 1    
   121   61  128 1    
   122   61  129 1    
   123   62   63 2    
   124   62   64 am   BACKBONE|DICT|INTERRES
   125   64   65 1    
   126   64  130 1    
   127   65   66 1    
   128   65   69 1    
   129   65  131 1    
   130   66   67 am   BACKBONE|DICT|INTERRES
   131   66   68 2    
   132   67  132 1    
   133   67  133 1    
   134   69   70 1    
   135   69  134 1    
   136   69  135 1    
   137   70   71 1    
   138   71  136 1    
   139   71  137 1    
@<TRIPOS>SUBSTRUCTURE
     1 UNK         1 GROUP             0       ****    0 ROOT    
