@<TRIPOS>MOLECULE
3R136
137   139    1
SMALL
USER_CHARGES


@<TRIPOS>ATOM
      1 CA         26.1292   23.3301    2.7432 C.3       0 UNK        -0.1979 
      2 C          26.9100   22.2253    2.0499 C.2       0 UNK         0.4864 
      3 O          26.7062   21.0502    2.3572 O.2       0 UNK        -0.5359 
      4 N          27.8004   22.5911    1.1167 N.am      1 UNK        -0.4318 
      5 CA         28.5961   21.6440    0.3189 C.3       1 UNK         0.0824 
      6 C6         29.8946   22.2733   -0.2483 C.3       12 UNK        -0.0944 
      7 S7         30.9147   23.0711    1.0390 S.3       12 UNK        -0.2672 
      8 C8         30.6875   24.8196    0.5942 C.3       12 UNK         0.0333 
      9 C9         30.8354   25.7405    1.7944 C.ar      12 UNK        -0.0807 
     10 C10        31.9024   26.6387    1.8755 C.ar      12 UNK        -0.0894 
     11 C11        31.9848   27.5487    2.9340 C.ar      12 UNK        -0.0804 
     12 C12        30.9784   27.5669    3.9057 C.ar      12 UNK        -0.0824 
     13 C13        29.9086   26.6668    3.8409 C.ar      12 UNK        -0.0762 
     14 C14        29.8644   25.7354    2.7990 C.ar      12 UNK        -0.0782 
     15 C15        28.8032   26.7171    4.8947 C.3       12 UNK         0.0230 
     16 S16        27.1083   26.5962    4.2103 S.3       12 UNK        -0.2608 
     17 C17        27.1098   27.8844    2.9195 C.3       12 UNK        -0.0989 
     18 CA         26.9835   27.2691    1.4988 C.3       5 UNK         0.0716 
     19 N          25.6030   26.9026    1.1800 N.am      5 UNK        -0.4135 
     20 C          25.2472   26.0058    0.2526 C.2       4 UNK         0.5031 
     21 O          26.0401   25.2536   -0.3260 O.2       4 UNK        -0.5229 
     22 CA         23.7500   25.9491   -0.0814 C.3       4 UNK         0.0329 
     23 CB         23.2693   27.2632   -0.7301 C.3       4 UNK        -0.2001 
     24 N          23.4972   24.8350   -0.9902 N.am      4 UNK        -0.4303 
     25 C          22.3286   24.2012   -1.1471 C.2       3 UNK         0.5044 
     26 O          21.3058   24.4950   -0.5263 O.2       3 UNK        -0.5152 
     27 CA         22.2720   23.0541   -2.1767 C.3       3 UNK         0.0319 
     28 CB         21.5669   23.5227   -3.4604 C.3       3 UNK        -0.2001 
     29 N          23.5836   22.5003   -2.5302 N.am      3 UNK        -0.4354 
     30 C          24.3461   21.7630   -1.7122 C.2       2 UNK         0.4964 
     31 O          24.0090   21.4511   -0.5688 O.2       2 UNK        -0.5047 
     32 CA         25.7219   21.3181   -2.2307 C.3       2 UNK         0.0288 
     33 CB         26.1044   21.8740   -3.6196 C.3       2 UNK        -0.2113 
     34 N          26.7095   21.7405   -1.2458 N.am      2 UNK        -0.4145 
     35 C          27.7588   21.0258   -0.8214 C.2       1 UNK         0.5006 
     36 O          28.0769   19.9290   -1.2850 O.2       1 UNK        -0.5103 
     37 C          27.5225   28.2543    0.4475 C.2       5 UNK         0.5055 
     38 O          26.7785   29.1120   -0.0336 O.2       5 UNK        -0.5220 
     39 N          28.8301   28.1616    0.1833 N.am      6 UNK        -0.4450 
     40 CA         29.6101   29.1415   -0.5715 C.3       6 UNK         0.0367 
     41 CB         30.5125   28.3982   -1.5748 C.3       6 UNK        -0.1929 
     42 C          30.4063   29.9714    0.4480 C.2       6 UNK         0.5070 
     43 O          31.6357   29.9152    0.4645 O.2       6 UNK        -0.5237 
     44 N          29.6659   30.6457    1.3400 N.am      7 UNK        -0.4739 
     45 CA         30.1543   31.2894    2.5614 C.3       7 UNK         0.0276 
     46 CB         28.9671   31.9249    3.3026 C.3       7 UNK        -0.1927 
     47 C          31.2656   32.3267    2.3272 C.2       7 UNK         0.5013 
     48 O          31.1681   33.1415    1.4062 O.2       7 UNK        -0.5193 
     49 N          32.2766   32.2873    3.1982 N.am      8 UNK        -0.4253 
     50 CA         33.4470   33.1534    3.2225 C.3       8 UNK         0.0242 
     51 CB         34.4574   32.7107    2.1472 C.3       8 UNK        -0.2000 
     52 C          34.0592   33.0402    4.6215 C.2       8 UNK         0.4948 
     53 O          33.8638   32.0173    5.2860 O.2       8 UNK        -0.5275 
     54 N          34.8163   34.0673    5.0311 N.am      9 UNK        -0.4246 
     55 CA         35.4578   34.1709    6.3499 C.3       9 UNK         0.0261 
     56 CB         36.1669   35.5298    6.4678 C.3       9 UNK        -0.1959 
     57 C          36.4341   33.0258    6.6766 C.2       9 UNK         0.5033 
     58 O          36.5781   32.6718    7.8477 O.2       9 UNK        -0.5390 
     59 N          37.0469   32.4376    5.6392 N.am      10 UNK        -0.4215 
     60 CA         37.9192   31.2627    5.7211 C.3       10 UNK         0.0240 
     61 CB         38.5152   30.9824    4.3318 C.3       10 UNK        -0.1982 
     62 C          37.2268   29.9999    6.2706 C.2       10 UNK         0.4970 
     63 O          37.9142   29.1456    6.8319 O.2       10 UNK        -0.4916 
     64 N          35.8991   29.9064    6.1152 N.am      11 UNK        -0.4279 
     65 CA         35.0680   28.8280    6.6718 C.3       11 UNK         0.1003 
     66 C          34.5722   29.1140    8.1203 C.2       11 UNK         0.5709 
     67 N          34.9029   30.2432    8.7389 N.am      11 UNK        -0.7358 
     68 O          33.8847   28.2822    8.7080 O.2       11 UNK        -0.4999 
     69 C69        33.8961   28.4563    5.7242 C.3       12 UNK        -0.0954 
     70 S70        34.4816   27.9301    4.0767 S.3       12 UNK        -0.2268 
     71 C71        33.1465   28.5311    3.0000 C.3       12 UNK         0.0203 
     72 H72        26.2607   23.2663    3.8230 H         1 UNK         0.0888 
     73 H73        26.4570   24.3164    2.4225 H         1 UNK         0.0888 
     74 H74        25.0668   23.2361    2.5198 H         1 UNK         0.0888 
     75 H75        27.9208   23.5679    0.8936 H         1 UNK         0.3017 
     76 H76        28.8933   20.8207    0.9727 H         1 UNK         0.0873 
     77 H77        29.6673   22.9902   -1.0397 H         1 UNK         0.0745 
     78 H78        30.5071   21.5010   -0.7180 H         1 UNK         0.0745 
     79 H79        31.3990   25.0798   -0.1912 H         1 UNK         0.0705 
     80 H80        29.6944   24.9719    0.1691 H         1 UNK         0.0705 
     81 H81        32.6623   26.6444    1.1057 H         1 UNK         0.1334 
     82 H82        31.0308   28.2833    4.7137 H         1 UNK         0.1417 
     83 H83        29.0515   25.0244    2.7519 H         1 UNK         0.1562 
     84 H84        28.8702   27.6404    5.4725 H         1 UNK         0.0748 
     85 H85        28.9553   25.9004    5.6015 H         1 UNK         0.0748 
     86 H86        28.0233   28.4738    3.0242 H         1 UNK         0.0940 
     87 H87        26.2946   28.5833    3.1161 H         1 UNK         0.0940 
     88 H88        27.5924   26.3669    1.4404 H         1 UNK         0.0703 
     89 H89        24.8883   27.4880    1.5861 H         1 UNK         0.3081 
     90 H90        23.2079   25.7797    0.8516 H         1 UNK         0.0719 
     91 H91        23.8061   27.4715   -1.6567 H         1 UNK         0.0809 
     92 H92        22.2051   27.2264   -0.9634 H         1 UNK         0.0809 
     93 H93        23.4194   28.1168   -0.0683 H         1 UNK         0.0809 
     94 H94        24.3141   24.5102   -1.4908 H         1 UNK         0.2990 
     95 H95        21.6752   22.2533   -1.7345 H         1 UNK         0.0690 
     96 H96        21.4438   22.7030   -4.1686 H         1 UNK         0.0788 
     97 H97        22.1220   24.3187   -3.9587 H         1 UNK         0.0788 
     98 H98        20.5707   23.9094   -3.2403 H         1 UNK         0.0788 
     99 H99        23.9348   22.7148   -3.4528 H         1 UNK         0.2993 
    100 H100       25.6943   20.2275   -2.2846 H         1 UNK         0.0949 
    101 H101       26.1396   22.9644   -3.6291 H         1 UNK         0.0767 
    102 H102       27.0880   21.5141   -3.9228 H         1 UNK         0.0767 
    103 H103       25.4010   21.5489   -4.3874 H         1 UNK         0.0767 
    104 H104       26.5030   22.6069   -0.7668 H         1 UNK         0.3013 
    105 H105       29.3760   27.4741    0.6842 H         1 UNK         0.3121 
    106 H106       28.9614   29.8204   -1.1293 H         1 UNK         0.0774 
    107 H107       31.2018   27.7166   -1.0750 H         1 UNK         0.0815 
    108 H108       31.1118   29.1021   -2.1536 H         1 UNK         0.0815 
    109 H109       29.9213   27.8168   -2.2823 H         1 UNK         0.0815 
    110 H110       28.6650   30.6523    1.2050 H         1 UNK         0.2987 
    111 H111       30.5553   30.4926    3.1902 H         1 UNK         0.0949 
    112 H112       28.2125   31.1815    3.5607 H         1 UNK         0.0806 
    113 H113       29.2910   32.3907    4.2345 H         1 UNK         0.0806 
    114 H114       28.4868   32.6988    2.7023 H         1 UNK         0.0806 
    115 H115       32.2598   31.6340    3.9725 H         1 UNK         0.3010 
    116 H116       33.1358   34.1855    3.0479 H         1 UNK         0.0829 
    117 H117       35.3458   33.3431    2.1555 H         1 UNK         0.0813 
    118 H118       34.7842   31.6814    2.3029 H         1 UNK         0.0813 
    119 H119       34.0274   32.7738    1.1474 H         1 UNK         0.0813 
    120 H120       34.9315   34.8589    4.4136 H         1 UNK         0.3038 
    121 H121       34.6636   34.1352    7.0986 H         1 UNK         0.0769 
    122 H122       36.9522   35.6430    5.7193 H         1 UNK         0.0811 
    123 H123       36.6328   35.6431    7.4480 H         1 UNK         0.0811 
    124 H124       35.4660   36.3563    6.3488 H         1 UNK         0.0811 
    125 H125       36.8638   32.8029    4.7163 H         1 UNK         0.3204 
    126 H126       38.7360   31.5073    6.4034 H         1 UNK         0.0748 
    127 H127       39.1952   30.1297    4.3634 H         1 UNK         0.0771 
    128 H128       37.7401   30.7533    3.5990 H         1 UNK         0.0771 
    129 H129       39.0864   31.8351    3.9638 H         1 UNK         0.0771 
    130 H130       35.3884   30.6672    5.6814 H         1 UNK         0.2980 
    131 H131       35.6867   27.9333    6.7612 H         1 UNK         0.0545 
    132 H132       35.4832   30.9406    8.2890 H         1 UNK         0.3459 
    133 H133       34.5745   30.3988    9.6784 H         1 UNK         0.3459 
    134 H134       33.2179   29.3047    5.6219 H         1 UNK         0.0616 
    135 H135       33.3059   27.6369    6.1383 H         1 UNK         0.0616 
    136 H136       33.5578   28.6876    2.0017 H         1 UNK         0.0634 
    137 H137       32.8046   29.5091    3.3358 H         1 UNK         0.0634 
@<TRIPOS>BOND
     1    1    2 1    
     2    1   72 1    
     3    1   73 1    
     4    1   74 1    
     5    2    3 2    
     6    2    4 am   BACKBONE|DICT|INTERRES
     7    4    5 1    
     8    4   75 1    
     9    5    6 1    
    10    5   35 1    
    11    5   76 1    
    12    6    7 1    
    13    6   77 1    
    14    6   78 1    
    15    7    8 1    
    16    8    9 1    
    17    8   79 1    
    18    8   80 1    
    19    9   10 ar   
    20    9   14 ar   
    21   10   11 ar   
    22   10   81 1    
    23   11   12 ar   
    24   11   71 1    
    25   12   13 ar   
    26   12   82 1    
    27   13   14 ar   
    28   13   15 1    
    29   14   83 1    
    30   15   16 1    
    31   15   84 1    
    32   15   85 1    
    33   16   17 1    
    34   17   18 1    
    35   17   86 1    
    36   17   87 1    
    37   18   19 1    
    38   18   37 1    
    39   18   88 1    
    40   19   20 am   BACKBONE|DICT|INTERRES
    41   19   89 1    
    42   20   21 2    
    43   20   22 1    
    44   22   23 1    
    45   22   24 1    
    46   22   90 1    
    47   23   91 1    
    48   23   92 1    
    49   23   93 1    
    50   24   25 am   BACKBONE|DICT|INTERRES
    51   24   94 1    
    52   25   26 2    
    53   25   27 1    
    54   27   28 1    
    55   27   29 1    
    56   27   95 1    
    57   28   96 1    
    58   28   97 1    
    59   28   98 1    
    60   29   30 am   BACKBONE|DICT|INTERRES
    61   29   99 1    
    62   30   31 2    
    63   30   32 1    
    64   32   33 1    
    65   32   34 1    
    66   32  100 1    
    67   33  101 1    
    68   33  102 1    
    69   33  103 1    
    70   34   35 am   BACKBONE|DICT|INTERRES
    71   34  104 1    
    72   35   36 2    
    73   37   38 2    
    74   37   39 am   BACKBONE|DICT|INTERRES
    75   39   40 1    
    76   39  105 1    
    77   40   41 1    
    78   40   42 1    
    79   40  106 1    
    80   41  107 1    
    81   41  108 1    
    82   41  109 1    
    83   42   43 2    
    84   42   44 am   BACKBONE|DICT|INTERRES
    85   44   45 1    
    86   44  110 1    
    87   45   46 1    
    88   45   47 1    
    89   45  111 1    
    90   46  112 1    
    91   46  113 1    
    92   46  114 1    
    93   47   48 2    
    94   47   49 am   BACKBONE|DICT|INTERRES
    95   49   50 1    
    96   49  115 1    
    97   50   51 1    
    98   50   52 1    
    99   50  116 1    
   100   51  117 1    
   101   51  118 1    
   102   51  119 1    
   103   52   53 2    
   104   52   54 am   BACKBONE|DICT|INTERRES
   105   54   55 1    
   106   54  120 1    
   107   55   56 1    
   108   55   57 1    
   109   55  121 1    
   110   56  122 1    
   111   56  123 1    
   112   56  124 1    
   113   57   58 2    
   114   57   59 am   BACKBONE|DICT|INTERRES
   115   59   60 1    
   116   59  125 1    
   117   60   61 1    
   118   60   62 1    
   119   60  126 1    
   120   61  127 1    
   121   61  128 1    
   122   61  129 1    
   123   62   63 2    
   124   62   64 am   BACKBONE|DICT|INTERRES
   125   64   65 1    
   126   64  130 1    
   127   65   66 1    
   128   65   69 1    
   129   65  131 1    
   130   66   67 am   BACKBONE|DICT|INTERRES
   131   66   68 2    
   132   67  132 1    
   133   67  133 1    
   134   69   70 1    
   135   69  134 1    
   136   69  135 1    
   137   70   71 1    
   138   71  136 1    
   139   71  137 1    
@<TRIPOS>SUBSTRUCTURE
     1 UNK         1 GROUP             0       ****    0 ROOT    
