@<TRIPOS>MOLECULE
3R136
137   139    1
SMALL
USER_CHARGES


@<TRIPOS>ATOM
      1 CA         28.7447   19.8946   -1.6396 C.3       0 UNK        -0.1979 
      2 C          28.6489   21.2667   -0.9890 C.2       0 UNK         0.4864 
      3 O          27.5472   21.8004   -0.8614 O.2       0 UNK        -0.5359 
      4 N          29.7965   21.8328   -0.5849 N.am      1 UNK        -0.4318 
      5 CA         29.9448   23.1388    0.0788 C.3       1 UNK         0.0824 
      6 C6         29.3019   23.1945    1.4928 C.3       12 UNK        -0.0944 
      7 S7         29.9682   21.9251    2.6170 S.3       12 UNK        -0.2672 
      8 C8         28.9446   22.2074    4.1005 C.3       12 UNK         0.0333 
      9 C9         29.1566   23.5830    4.7257 C.ar      12 UNK        -0.0807 
     10 C10        30.4468   24.0560    4.9882 C.ar      12 UNK        -0.0894 
     11 C11        30.6420   25.3184    5.5536 C.ar      12 UNK        -0.0804 
     12 C12        29.5345   26.1077    5.8739 C.ar      12 UNK        -0.0824 
     13 C13        28.2380   25.6406    5.6350 C.ar      12 UNK        -0.0762 
     14 C14        28.0555   24.3775    5.0621 C.ar      12 UNK        -0.0782 
     15 C15        27.0381   26.4945    6.0189 C.3       12 UNK         0.0230 
     16 S16        26.7491   27.8347    4.8233 S.3       12 UNK        -0.2608 
     17 C17        25.9562   26.9532    3.4344 C.3       12 UNK        -0.0989 
     18 CA         26.9269   26.4229    2.3449 C.3       5 UNK         0.0716 
     19 N          26.2091   25.8263    1.2286 N.am      5 UNK        -0.4135 
     20 C          25.6202   24.6287    1.2176 C.2       4 UNK         0.5031 
     21 O          25.5741   23.8936    2.2055 O.2       4 UNK        -0.5229 
     22 CA         24.9815   24.1380   -0.0992 C.3       4 UNK         0.0329 
     23 CB         23.4436   24.1026    0.0114 C.3       4 UNK        -0.2001 
     24 N          25.4116   24.8356   -1.3229 N.am      4 UNK        -0.4303 
     25 C          25.1757   26.0996   -1.7036 C.2       3 UNK         0.5044 
     26 O          24.5452   26.9094   -1.0232 O.2       3 UNK        -0.5152 
     27 CA         25.7832   26.5373   -3.0531 C.3       3 UNK         0.0319 
     28 CB         25.4749   28.0075   -3.3944 C.3       3 UNK        -0.2001 
     29 N          27.2352   26.3444   -3.0773 N.am      3 UNK        -0.4354 
     30 C          27.8575   25.1817   -3.3086 C.2       2 UNK         0.4964 
     31 O          27.2601   24.1387   -3.5798 O.2       2 UNK        -0.5047 
     32 CA         29.3938   25.1508   -3.1881 C.3       2 UNK         0.0288 
     33 CB         30.0516   26.5398   -3.0053 C.3       2 UNK        -0.2113 
     34 N          29.8099   24.2272   -2.1252 N.am      2 UNK        -0.4145 
     35 C          29.4846   24.3060   -0.8239 C.2       1 UNK         0.5006 
     36 O          28.8464   25.2401   -0.3396 O.2       1 UNK        -0.5103 
     37 C          27.8522   27.4997    1.7569 C.2       5 UNK         0.5055 
     38 O          27.4674   28.1779    0.7996 O.2       5 UNK        -0.5220 
     39 N          29.0444   27.6381    2.3481 N.am      6 UNK        -0.4450 
     40 CA         30.0829   28.5821    1.9385 C.3       6 UNK         0.0367 
     41 CB         31.1439   27.8374    1.1078 C.3       6 UNK        -0.1929 
     42 C          30.6580   29.3242    3.1583 C.2       6 UNK         0.5070 
     43 O          31.8404   29.6698    3.1762 O.2       6 UNK        -0.5237 
     44 N          29.8022   29.5891    4.1586 N.am      7 UNK        -0.4739 
     45 CA         30.1387   30.3267    5.3848 C.3       7 UNK         0.0276 
     46 CB         28.9556   30.2627    6.3638 C.3       7 UNK        -0.1927 
     47 C          30.5553   31.7926    5.1512 C.2       7 UNK         0.5013 
     48 O          31.1823   32.3898    6.0278 O.2       7 UNK        -0.5193 
     49 N          30.2146   32.3461    3.9795 N.am      8 UNK        -0.4253 
     50 CA         30.6349   33.6605    3.4994 C.3       8 UNK         0.0242 
     51 CB         29.7445   34.0637    2.3096 C.3       8 UNK        -0.2000 
     52 C          32.1310   33.6602    3.1333 C.2       8 UNK         0.4948 
     53 O          32.4806   33.5253    1.9595 O.2       8 UNK        -0.5275 
     54 N          32.9842   33.7743    4.1592 N.am      9 UNK        -0.4246 
     55 CA         34.4488   33.9074    4.1452 C.3       9 UNK         0.0261 
     56 CB         34.8825   35.1764    3.3848 C.3       9 UNK        -0.1959 
     57 C          35.2432   32.6812    3.6542 C.2       9 UNK         0.5033 
     58 O          36.3570   32.4792    4.1396 O.2       9 UNK        -0.5390 
     59 N          34.6930   31.8934    2.7204 N.am      10 UNK        -0.4215 
     60 CA         35.3354   30.7129    2.1306 C.3       10 UNK         0.0240 
     61 CB         34.5156   30.2117    0.9332 C.3       10 UNK        -0.1982 
     62 C          35.6083   29.5922    3.1501 C.2       10 UNK         0.4970 
     63 O          36.7258   29.0738    3.1812 O.2       10 UNK        -0.4916 
     64 N          34.6167   29.2805    3.9921 N.am      11 UNK        -0.4279 
     65 CA         34.7682   28.4197    5.1774 C.3       11 UNK         0.1003 
     66 C          34.0703   28.9831    6.4474 C.2       11 UNK         0.5709 
     67 N          33.6235   30.2332    6.4540 N.am      11 UNK        -0.7358 
     68 O          33.9647   28.2941    7.4590 O.2       11 UNK        -0.4999 
     69 C69        34.4711   26.9220    4.8882 C.3       12 UNK        -0.0954 
     70 S70        32.7685   26.5735    4.3362 S.3       12 UNK        -0.2268 
     71 C71        32.0513   25.8186    5.8244 C.3       12 UNK         0.0203 
     72 H72        28.1626   19.1698   -1.0711 H         1 UNK         0.0888 
     73 H73        28.3465   19.9323   -2.6532 H         1 UNK         0.0888 
     74 H74        29.7730   19.5371   -1.6917 H         1 UNK         0.0888 
     75 H75        30.6594   21.3228   -0.7148 H         1 UNK         0.3017 
     76 H76        31.0177   23.2885    0.2093 H         1 UNK         0.0873 
     77 H77        28.2190   23.0777    1.4321 H         1 UNK         0.0745 
     78 H78        29.4819   24.1683    1.9524 H         1 UNK         0.0745 
     79 H79        29.1847   21.4453    4.8428 H         1 UNK         0.0705 
     80 H80        27.8969   22.0600    3.8323 H         1 UNK         0.0705 
     81 H81        31.3037   23.4443    4.7404 H         1 UNK         0.1334 
     82 H82        29.6825   27.0836    6.3150 H         1 UNK         0.1417 
     83 H83        27.0536   24.0159    4.8705 H         1 UNK         0.1562 
     84 H84        26.1382   25.8857    6.1197 H         1 UNK         0.0748 
     85 H85        27.2133   26.9365    7.0009 H         1 UNK         0.0748 
     86 H86        25.2382   27.6396    2.9816 H         1 UNK         0.0940 
     87 H87        25.3607   26.1316    3.8348 H         1 UNK         0.0940 
     88 H88        27.5615   25.6461    2.7701 H         1 UNK         0.0703 
     89 H89        26.2119   26.3871    0.3844 H         1 UNK         0.3081 
     90 H90        25.3186   23.1085   -0.2240 H         1 UNK         0.0719 
     91 H91        23.1291   23.4750    0.8463 H         1 UNK         0.0809 
     92 H92        23.0231   25.0944    0.1791 H         1 UNK         0.0809 
     93 H93        22.9896   23.6917   -0.8903 H         1 UNK         0.0809 
     94 H94        25.9943   24.2823   -1.9443 H         1 UNK         0.2990 
     95 H95        25.3276   25.9163   -3.8275 H         1 UNK         0.0690 
     96 H96        25.8736   28.2801   -4.3717 H         1 UNK         0.0788 
     97 H97        25.8977   28.6906   -2.6563 H         1 UNK         0.0788 
     98 H98        24.3989   28.1845   -3.4248 H         1 UNK         0.0788 
     99 H99        27.7987   27.1355   -2.8002 H         1 UNK         0.2993 
    100 H100       29.7613   24.7328   -4.1266 H         1 UNK         0.0949 
    101 H101       29.8117   27.2014   -3.8388 H         1 UNK         0.0767 
    102 H102       29.7364   27.0353   -2.0863 H         1 UNK         0.0767 
    103 H103       31.1377   26.4535   -2.9720 H         1 UNK         0.0767 
    104 H104       30.3022   23.4010   -2.4345 H         1 UNK         0.3013 
    105 H105       29.2662   27.0595    3.1481 H         1 UNK         0.3121 
    106 H106       29.6485   29.3571    1.3039 H         1 UNK         0.0774 
    107 H107       31.6692   27.0880    1.6982 H         1 UNK         0.0815 
    108 H108       30.6905   27.3293    0.2568 H         1 UNK         0.0815 
    109 H109       31.8867   28.5246    0.7074 H         1 UNK         0.0815 
    110 H110       28.8460   29.2720    4.0696 H         1 UNK         0.2987 
    111 H111       30.9883   29.8210    5.8461 H         1 UNK         0.0949 
    112 H112       29.1748   30.8131    7.2800 H         1 UNK         0.0806 
    113 H113       28.7334   29.2376    6.6563 H         1 UNK         0.0806 
    114 H114       28.0510   30.6939    5.9333 H         1 UNK         0.0806 
    115 H115       29.7165   31.7653    3.3220 H         1 UNK         0.3010 
    116 H116       30.4806   34.3915    4.2963 H         1 UNK         0.0829 
    117 H117       29.8171   33.3510    1.4868 H         1 UNK         0.0813 
    118 H118       28.6968   34.1313    2.6030 H         1 UNK         0.0813 
    119 H119       30.0347   35.0405    1.9203 H         1 UNK         0.0813 
    120 H120       32.5684   33.7435    5.0844 H         1 UNK         0.3038 
    121 H121       34.7299   34.0464    5.1905 H         1 UNK         0.0769 
    122 H122       35.9596   35.3298    3.4658 H         1 UNK         0.0811 
    123 H123       34.3986   36.0659    3.7879 H         1 UNK         0.0811 
    124 H124       34.6446   35.1166    2.3223 H         1 UNK         0.0811 
    125 H125       33.7938   32.1805    2.3419 H         1 UNK         0.3204 
    126 H126       36.3069   31.0337    1.7485 H         1 UNK         0.0748 
    127 H127       34.9235   29.2823    0.5336 H         1 UNK         0.0771 
    128 H128       33.4803   30.0273    1.2100 H         1 UNK         0.0771 
    129 H129       34.5153   30.9419    0.1237 H         1 UNK         0.0771 
    130 H130       33.6830   29.6479    3.8263 H         1 UNK         0.2980 
    131 H131       35.8198   28.4585    5.4671 H         1 UNK         0.0545 
    132 H132       33.7398   30.8264    5.6507 H         1 UNK         0.3459 
    133 H133       33.1876   30.5955    7.2870 H         1 UNK         0.3459 
    134 H134       35.1427   26.5707    4.1038 H         1 UNK         0.0616 
    135 H135       34.7063   26.3106    5.7609 H         1 UNK         0.0616 
    136 H136       32.0451   26.5473    6.6358 H         1 UNK         0.0634 
    137 H137       32.6803   24.9900    6.1532 H         1 UNK         0.0634 
@<TRIPOS>BOND
     1    1    2 1    
     2    1   72 1    
     3    1   73 1    
     4    1   74 1    
     5    2    3 2    
     6    2    4 am   BACKBONE|DICT|INTERRES
     7    4    5 1    
     8    4   75 1    
     9    5    6 1    
    10    5   35 1    
    11    5   76 1    
    12    6    7 1    
    13    6   77 1    
    14    6   78 1    
    15    7    8 1    
    16    8    9 1    
    17    8   79 1    
    18    8   80 1    
    19    9   10 ar   
    20    9   14 ar   
    21   10   11 ar   
    22   10   81 1    
    23   11   12 ar   
    24   11   71 1    
    25   12   13 ar   
    26   12   82 1    
    27   13   14 ar   
    28   13   15 1    
    29   14   83 1    
    30   15   16 1    
    31   15   84 1    
    32   15   85 1    
    33   16   17 1    
    34   17   18 1    
    35   17   86 1    
    36   17   87 1    
    37   18   19 1    
    38   18   37 1    
    39   18   88 1    
    40   19   20 am   BACKBONE|DICT|INTERRES
    41   19   89 1    
    42   20   21 2    
    43   20   22 1    
    44   22   23 1    
    45   22   24 1    
    46   22   90 1    
    47   23   91 1    
    48   23   92 1    
    49   23   93 1    
    50   24   25 am   BACKBONE|DICT|INTERRES
    51   24   94 1    
    52   25   26 2    
    53   25   27 1    
    54   27   28 1    
    55   27   29 1    
    56   27   95 1    
    57   28   96 1    
    58   28   97 1    
    59   28   98 1    
    60   29   30 am   BACKBONE|DICT|INTERRES
    61   29   99 1    
    62   30   31 2    
    63   30   32 1    
    64   32   33 1    
    65   32   34 1    
    66   32  100 1    
    67   33  101 1    
    68   33  102 1    
    69   33  103 1    
    70   34   35 am   BACKBONE|DICT|INTERRES
    71   34  104 1    
    72   35   36 2    
    73   37   38 2    
    74   37   39 am   BACKBONE|DICT|INTERRES
    75   39   40 1    
    76   39  105 1    
    77   40   41 1    
    78   40   42 1    
    79   40  106 1    
    80   41  107 1    
    81   41  108 1    
    82   41  109 1    
    83   42   43 2    
    84   42   44 am   BACKBONE|DICT|INTERRES
    85   44   45 1    
    86   44  110 1    
    87   45   46 1    
    88   45   47 1    
    89   45  111 1    
    90   46  112 1    
    91   46  113 1    
    92   46  114 1    
    93   47   48 2    
    94   47   49 am   BACKBONE|DICT|INTERRES
    95   49   50 1    
    96   49  115 1    
    97   50   51 1    
    98   50   52 1    
    99   50  116 1    
   100   51  117 1    
   101   51  118 1    
   102   51  119 1    
   103   52   53 2    
   104   52   54 am   BACKBONE|DICT|INTERRES
   105   54   55 1    
   106   54  120 1    
   107   55   56 1    
   108   55   57 1    
   109   55  121 1    
   110   56  122 1    
   111   56  123 1    
   112   56  124 1    
   113   57   58 2    
   114   57   59 am   BACKBONE|DICT|INTERRES
   115   59   60 1    
   116   59  125 1    
   117   60   61 1    
   118   60   62 1    
   119   60  126 1    
   120   61  127 1    
   121   61  128 1    
   122   61  129 1    
   123   62   63 2    
   124   62   64 am   BACKBONE|DICT|INTERRES
   125   64   65 1    
   126   64  130 1    
   127   65   66 1    
   128   65   69 1    
   129   65  131 1    
   130   66   67 am   BACKBONE|DICT|INTERRES
   131   66   68 2    
   132   67  132 1    
   133   67  133 1    
   134   69   70 1    
   135   69  134 1    
   136   69  135 1    
   137   70   71 1    
   138   71  136 1    
   139   71  137 1    
@<TRIPOS>SUBSTRUCTURE
     1 UNK         1 GROUP             0       ****    0 ROOT    
