@<TRIPOS>MOLECULE
3R136
137   139    1
SMALL
USER_CHARGES


@<TRIPOS>ATOM
      1 CA         27.4199   17.0272    1.1698 C.3       0 UNK        -0.1979 
      2 C          27.7524   18.3391    0.4746 C.2       0 UNK         0.4864 
      3 O          26.9009   18.8979   -0.2176 O.2       0 UNK        -0.5359 
      4 N          28.9843   18.8341    0.6534 N.am      1 UNK        -0.4318 
      5 CA         29.4775   20.0938    0.0812 C.3       1 UNK         0.0824 
      6 C6         31.0282   20.1290    0.0281 C.3       12 UNK        -0.0944 
      7 S7         31.8483   19.8491    1.6410 S.3       12 UNK        -0.2672 
      8 C8         32.9408   21.3013    1.7898 C.3       12 UNK         0.0333 
      9 C9         32.1879   22.5449    2.2413 C.ar      12 UNK        -0.0807 
     10 C10        31.8860   22.7277    3.5934 C.ar      12 UNK        -0.0894 
     11 C11        31.1981   23.8671    4.0227 C.ar      12 UNK        -0.0804 
     12 C12        30.7991   24.8235    3.0824 C.ar      12 UNK        -0.0824 
     13 C13        31.0816   24.6444    1.7241 C.ar      12 UNK        -0.0762 
     14 C14        31.7928   23.5123    1.3134 C.ar      12 UNK        -0.0782 
     15 C15        30.5551   25.6281    0.6881 C.3       12 UNK         0.0230 
     16 S16        31.3676   27.2553    0.7722 S.3       12 UNK        -0.2608 
     17 C17        30.5537   28.0959   -0.6320 C.3       12 UNK        -0.0989 
     18 CA         29.6861   29.3305   -0.2686 C.3       5 UNK         0.0716 
     19 N          28.7049   29.0550    0.7834 N.am      5 UNK        -0.4135 
     20 C          27.6077   29.7895    1.0108 C.2       4 UNK         0.5031 
     21 O          27.2978   30.7724    0.3336 O.2       4 UNK        -0.5229 
     22 CA         26.6877   29.3255    2.1602 C.3       4 UNK         0.0329 
     23 CB         25.4979   30.2764    2.3893 C.3       4 UNK        -0.2001 
     24 N          26.1819   27.9700    1.9223 N.am      4 UNK        -0.4303 
     25 C          26.8798   26.8556    2.1677 C.2       3 UNK         0.5044 
     26 O          28.0025   26.8628    2.6806 O.2       3 UNK        -0.5152 
     27 CA         26.2540   25.5245    1.7295 C.3       3 UNK         0.0319 
     28 CB         26.1857   25.4333    0.1904 C.3       3 UNK        -0.2001 
     29 N          27.0930   24.4582    2.2656 N.am      3 UNK        -0.4354 
     30 C          26.8448   23.1462    2.2768 C.2       2 UNK         0.4964 
     31 O          25.8094   22.6260    1.8555 O.2       2 UNK        -0.5047 
     32 CA         27.9473   22.2696    2.8945 C.3       2 UNK         0.0288 
     33 CB         27.4891   21.6648    4.2315 C.3       2 UNK        -0.2113 
     34 N          28.4138   21.1996    2.0120 N.am      2 UNK        -0.4145 
     35 C          28.9040   21.3514    0.7708 C.2       1 UNK         0.5006 
     36 O          28.9431   22.4251    0.1674 O.2       1 UNK        -0.5103 
     37 C          30.5279   30.5866    0.0369 C.2       5 UNK         0.5055 
     38 O          30.6721   30.9793    1.1989 O.2       5 UNK        -0.5220 
     39 N          31.0470   31.2023   -1.0365 N.am      6 UNK        -0.4450 
     40 CA         31.8492   32.4342   -1.0604 C.3       6 UNK         0.0367 
     41 CB         33.1804   32.2391   -0.3037 C.3       6 UNK        -0.1929 
     42 C          31.0896   33.6901   -0.5841 C.2       6 UNK         0.5070 
     43 O          31.7288   34.6665   -0.1905 O.2       6 UNK        -0.5237 
     44 N          29.7471   33.6461   -0.6061 N.am      7 UNK        -0.4739 
     45 CA         28.7686   34.6674   -0.1887 C.3       7 UNK         0.0276 
     46 CB         28.9041   35.9522   -1.0287 C.3       7 UNK        -0.1927 
     47 C          28.7665   34.9925    1.3185 C.2       7 UNK         0.5013 
     48 O          27.6947   35.1848    1.8923 O.2       7 UNK        -0.5193 
     49 N          29.9512   35.0212    1.9380 N.am      8 UNK        -0.4253 
     50 CA         30.1836   35.2319    3.3682 C.3       8 UNK         0.0242 
     51 CB         31.6482   35.6619    3.5619 C.3       8 UNK        -0.2000 
     52 C          29.8608   34.0036    4.2429 C.2       8 UNK         0.4948 
     53 O          29.9492   34.1155    5.4661 O.2       8 UNK        -0.5275 
     54 N          29.5131   32.8700    3.6140 N.am      9 UNK        -0.4246 
     55 CA         29.2574   31.5537    4.2050 C.3       9 UNK         0.0261 
     56 CB         28.0802   31.5825    5.2035 C.3       9 UNK        -0.1959 
     57 C          30.5458   30.9458    4.7798 C.2       9 UNK         0.5033 
     58 O          30.6647   30.7460    5.9912 O.2       9 UNK        -0.5390 
     59 N          31.4950   30.6793    3.8752 N.am      10 UNK        -0.4215 
     60 CA         32.7422   29.9657    4.1466 C.3       10 UNK         0.0240 
     61 CB         33.6901   30.1674    2.9515 C.3       10 UNK        -0.1982 
     62 C          32.4987   28.4674    4.4048 C.2       10 UNK         0.4970 
     63 O          31.4118   27.9567    4.1293 O.2       10 UNK        -0.4916 
     64 N          33.5294   27.7895    4.9158 N.am      11 UNK        -0.4279 
     65 CA         33.5545   26.3470    5.1699 C.3       11 UNK         0.1003 
     66 C          35.0232   25.8625    5.2722 C.2       11 UNK         0.5709 
     67 N          35.3043   24.6308    4.8712 N.am      11 UNK        -0.7358 
     68 O          35.9082   26.5922    5.7182 O.2       11 UNK        -0.4999 
     69 C69        32.6970   25.9697    6.4104 C.3       12 UNK        -0.0954 
     70 S70        32.3228   24.1903    6.5455 S.3       12 UNK        -0.2268 
     71 C71        30.8433   24.0296    5.4946 C.3       12 UNK         0.0203 
     72 H72        27.1417   16.2730    0.4342 H         1 UNK         0.0888 
     73 H73        28.2632   16.6447    1.7446 H         1 UNK         0.0888 
     74 H74        26.5804   17.1655    1.8507 H         1 UNK         0.0888 
     75 H75        29.6504   18.3332    1.2258 H         1 UNK         0.3017 
     76 H76        29.1246   20.1382   -0.9517 H         1 UNK         0.0873 
     77 H77        31.3730   21.0670   -0.4103 H         1 UNK         0.0745 
     78 H78        31.3792   19.3518   -0.6524 H         1 UNK         0.0745 
     79 H79        33.7230   21.0737    2.5156 H         1 UNK         0.0705 
     80 H80        33.4530   21.4774    0.8426 H         1 UNK         0.0705 
     81 H81        32.1811   21.9773    4.3144 H         1 UNK         0.1334 
     82 H82        30.2536   25.7017    3.4010 H         1 UNK         0.1417 
     83 H83        32.0083   23.3667    0.2639 H         1 UNK         0.1562 
     84 H84        29.4814   25.7495    0.8244 H         1 UNK         0.0748 
     85 H85        30.6846   25.2208   -0.3159 H         1 UNK         0.0748 
     86 H86        29.9231   27.3760   -1.1561 H         1 UNK         0.0940 
     87 H87        31.3257   28.3634   -1.3560 H         1 UNK         0.0940 
     88 H88        29.1085   29.5696   -1.1648 H         1 UNK         0.0703 
     89 H89        28.9100   28.2801    1.4050 H         1 UNK         0.3081 
     90 H90        27.2827   29.3232    3.0754 H         1 UNK         0.0719 
     91 H91        24.8419   30.3219    1.5191 H         1 UNK         0.0809 
     92 H92        24.8998   29.9639    3.2454 H         1 UNK         0.0809 
     93 H93        25.8430   31.2916    2.5907 H         1 UNK         0.0809 
     94 H94        25.2817   27.8953    1.4700 H         1 UNK         0.2990 
     95 H95        25.2539   25.4448    2.1596 H         1 UNK         0.0690 
     96 H96        25.5806   26.2367   -0.2307 H         1 UNK         0.0788 
     97 H97        25.7367   24.4955   -0.1365 H         1 UNK         0.0788 
     98 H98        27.1770   25.4992   -0.2599 H         1 UNK         0.0788 
     99 H99        27.9538   24.8124    2.6675 H         1 UNK         0.2993 
    100 H100       28.8131   22.8988    3.0935 H         1 UNK         0.0949 
    101 H101       28.3003   21.1269    4.7229 H         1 UNK         0.0767 
    102 H102       27.1567   22.4442    4.9186 H         1 UNK         0.0767 
    103 H103       26.6573   20.9722    4.0956 H         1 UNK         0.0767 
    104 H104       28.4131   20.2683    2.3986 H         1 UNK         0.3013 
    105 H105       30.8572   30.8043   -1.9467 H         1 UNK         0.3121 
    106 H106       32.0924   32.6147   -2.1085 H         1 UNK         0.0774 
    107 H107       33.8600   33.0723   -0.4862 H         1 UNK         0.0815 
    108 H108       33.0245   32.1820    0.7733 H         1 UNK         0.0815 
    109 H109       33.6916   31.3299   -0.6195 H         1 UNK         0.0815 
    110 H110       29.3340   32.7761   -0.9131 H         1 UNK         0.2987 
    111 H111       27.7892   34.2374   -0.4067 H         1 UNK         0.0949 
    112 H112       29.8546   36.4575   -0.8546 H         1 UNK         0.0806 
    113 H113       28.8280   35.7388   -2.0948 H         1 UNK         0.0806 
    114 H114       28.1126   36.6616   -0.7833 H         1 UNK         0.0806 
    115 H115       30.7720   34.8874    1.3502 H         1 UNK         0.3010 
    116 H116       29.5374   36.0456    3.7042 H         1 UNK         0.0829 
    117 H117       31.8751   36.5652    2.9951 H         1 UNK         0.0813 
    118 H118       31.8601   35.8783    4.6099 H         1 UNK         0.0813 
    119 H119       32.3414   34.8824    3.2425 H         1 UNK         0.0813 
    120 H120       29.5195   32.8898    2.6034 H         1 UNK         0.3038 
    121 H121       28.9622   30.9096    3.3785 H         1 UNK         0.0769 
    122 H122       28.3090   32.1694    6.0932 H         1 UNK         0.0811 
    123 H123       27.8358   30.5739    5.5388 H         1 UNK         0.0811 
    124 H124       27.1831   32.0004    4.7472 H         1 UNK         0.0811 
    125 H125       31.2682   30.8291    2.8918 H         1 UNK         0.3204 
    126 H126       33.1993   30.3973    5.0395 H         1 UNK         0.0748 
    127 H127       34.6442   29.6627    3.1075 H         1 UNK         0.0771 
    128 H128       33.2603   29.7752    2.0282 H         1 UNK         0.0771 
    129 H129       33.9096   31.2240    2.7987 H         1 UNK         0.0771 
    130 H130       34.4055   28.2587    5.1047 H         1 UNK         0.2980 
    131 H131       33.1279   25.8726    4.2854 H         1 UNK         0.0545 
    132 H132       36.2530   24.2967    4.9341 H         1 UNK         0.3459 
    133 H133       34.5759   24.0230    4.5305 H         1 UNK         0.3459 
    134 H134       33.1971   26.2869    7.3271 H         1 UNK         0.0616 
    135 H135       31.7467   26.5045    6.3987 H         1 UNK         0.0616 
    136 H136       30.1822   24.8836    5.6500 H         1 UNK         0.0634 
    137 H137       30.2838   23.1499    5.8159 H         1 UNK         0.0634 
@<TRIPOS>BOND
     1    1    2 1    
     2    1   72 1    
     3    1   73 1    
     4    1   74 1    
     5    2    3 2    
     6    2    4 am   BACKBONE|DICT|INTERRES
     7    4    5 1    
     8    4   75 1    
     9    5    6 1    
    10    5   35 1    
    11    5   76 1    
    12    6    7 1    
    13    6   77 1    
    14    6   78 1    
    15    7    8 1    
    16    8    9 1    
    17    8   79 1    
    18    8   80 1    
    19    9   10 ar   
    20    9   14 ar   
    21   10   11 ar   
    22   10   81 1    
    23   11   12 ar   
    24   11   71 1    
    25   12   13 ar   
    26   12   82 1    
    27   13   14 ar   
    28   13   15 1    
    29   14   83 1    
    30   15   16 1    
    31   15   84 1    
    32   15   85 1    
    33   16   17 1    
    34   17   18 1    
    35   17   86 1    
    36   17   87 1    
    37   18   19 1    
    38   18   37 1    
    39   18   88 1    
    40   19   20 am   BACKBONE|DICT|INTERRES
    41   19   89 1    
    42   20   21 2    
    43   20   22 1    
    44   22   23 1    
    45   22   24 1    
    46   22   90 1    
    47   23   91 1    
    48   23   92 1    
    49   23   93 1    
    50   24   25 am   BACKBONE|DICT|INTERRES
    51   24   94 1    
    52   25   26 2    
    53   25   27 1    
    54   27   28 1    
    55   27   29 1    
    56   27   95 1    
    57   28   96 1    
    58   28   97 1    
    59   28   98 1    
    60   29   30 am   BACKBONE|DICT|INTERRES
    61   29   99 1    
    62   30   31 2    
    63   30   32 1    
    64   32   33 1    
    65   32   34 1    
    66   32  100 1    
    67   33  101 1    
    68   33  102 1    
    69   33  103 1    
    70   34   35 am   BACKBONE|DICT|INTERRES
    71   34  104 1    
    72   35   36 2    
    73   37   38 2    
    74   37   39 am   BACKBONE|DICT|INTERRES
    75   39   40 1    
    76   39  105 1    
    77   40   41 1    
    78   40   42 1    
    79   40  106 1    
    80   41  107 1    
    81   41  108 1    
    82   41  109 1    
    83   42   43 2    
    84   42   44 am   BACKBONE|DICT|INTERRES
    85   44   45 1    
    86   44  110 1    
    87   45   46 1    
    88   45   47 1    
    89   45  111 1    
    90   46  112 1    
    91   46  113 1    
    92   46  114 1    
    93   47   48 2    
    94   47   49 am   BACKBONE|DICT|INTERRES
    95   49   50 1    
    96   49  115 1    
    97   50   51 1    
    98   50   52 1    
    99   50  116 1    
   100   51  117 1    
   101   51  118 1    
   102   51  119 1    
   103   52   53 2    
   104   52   54 am   BACKBONE|DICT|INTERRES
   105   54   55 1    
   106   54  120 1    
   107   55   56 1    
   108   55   57 1    
   109   55  121 1    
   110   56  122 1    
   111   56  123 1    
   112   56  124 1    
   113   57   58 2    
   114   57   59 am   BACKBONE|DICT|INTERRES
   115   59   60 1    
   116   59  125 1    
   117   60   61 1    
   118   60   62 1    
   119   60  126 1    
   120   61  127 1    
   121   61  128 1    
   122   61  129 1    
   123   62   63 2    
   124   62   64 am   BACKBONE|DICT|INTERRES
   125   64   65 1    
   126   64  130 1    
   127   65   66 1    
   128   65   69 1    
   129   65  131 1    
   130   66   67 am   BACKBONE|DICT|INTERRES
   131   66   68 2    
   132   67  132 1    
   133   67  133 1    
   134   69   70 1    
   135   69  134 1    
   136   69  135 1    
   137   70   71 1    
   138   71  136 1    
   139   71  137 1    
@<TRIPOS>SUBSTRUCTURE
     1 UNK         1 GROUP             0       ****    0 ROOT    
