@<TRIPOS>MOLECULE
3R136
137   139    1
SMALL
USER_CHARGES


@<TRIPOS>ATOM
      1 CA         31.6565   23.8791   -1.6597 C.3       0 UNK        -0.1979 
      2 C          30.5847   23.8522   -0.5815 C.2       0 UNK         0.4864 
      3 O          29.9303   24.8713   -0.3496 O.2       0 UNK        -0.5359 
      4 N          30.4005   22.6999    0.0796 N.am      1 UNK        -0.4318 
      5 CA         29.4130   22.5005    1.1475 C.3       1 UNK         0.0824 
      6 C6         29.5401   21.1260    1.8535 C.3       12 UNK        -0.0944 
      7 S7         31.2360   20.7203    2.3985 S.3       12 UNK        -0.2672 
      8 C8         31.3776   21.6126    3.9882 C.3       12 UNK         0.0333 
      9 C9         31.4737   23.1274    3.8243 C.ar      12 UNK        -0.0807 
     10 C10        32.3165   23.6882    2.8582 C.ar      12 UNK        -0.0894 
     11 C11        32.3698   25.0709    2.6687 C.ar      12 UNK        -0.0804 
     12 C12        31.5883   25.9031    3.4765 C.ar      12 UNK        -0.0824 
     13 C13        30.7778   25.3617    4.4796 C.ar      12 UNK        -0.0762 
     14 C14        30.7206   23.9735    4.6453 C.ar      12 UNK        -0.0782 
     15 C15        29.9808   26.2831    5.3946 C.3       12 UNK         0.0230 
     16 S16        28.1727   26.0929    5.2228 S.3       12 UNK        -0.2608 
     17 C17        27.9105   26.2195    3.4240 C.3       12 UNK        -0.0989 
     18 CA         28.2023   27.6222    2.8426 C.3       5 UNK         0.0716 
     19 N          28.6066   27.5378    1.4388 N.am      5 UNK        -0.4135 
     20 C          29.1107   28.5504    0.7227 C.2       4 UNK         0.5031 
     21 O          29.3596   29.6576    1.1989 O.2       4 UNK        -0.5229 
     22 CA         29.3389   28.3013   -0.7767 C.3       4 UNK         0.0329 
     23 CB         30.8258   28.0646   -1.0765 C.3       4 UNK        -0.2001 
     24 N          28.5579   27.1593   -1.2613 N.am      4 UNK        -0.4303 
     25 C          27.2918   27.2472   -1.6890 C.2       3 UNK         0.5044 
     26 O          26.6666   28.3057   -1.7632 O.2       3 UNK        -0.5152 
     27 CA         26.5990   25.9306   -2.0818 C.3       3 UNK         0.0319 
     28 CB         27.2988   25.2734   -3.2839 C.3       3 UNK        -0.2001 
     29 N          26.4897   24.9551   -0.9924 N.am      3 UNK        -0.4354 
     30 C          25.9240   25.1526    0.2062 C.2       2 UNK         0.4964 
     31 O          25.5071   26.2406    0.5977 O.2       2 UNK        -0.5047 
     32 CA         25.8316   23.9405    1.1525 C.3       2 UNK         0.0288 
     33 CB         24.8219   22.8900    0.6466 C.3       2 UNK        -0.2113 
     34 N          27.1446   23.3586    1.4613 N.am      2 UNK        -0.4145 
     35 C          27.9803   22.7258    0.6263 C.2       1 UNK         0.5006 
     36 O          27.6797   22.3702   -0.5174 O.2       1 UNK        -0.5103 
     37 C          27.0301   28.6068    3.0435 C.2       5 UNK         0.5055 
     38 O          27.0781   29.4235    3.9629 O.2       5 UNK        -0.5220 
     39 N          26.0409   28.5777    2.1361 N.am      6 UNK        -0.4450 
     40 CA         24.9330   29.5385    2.0702 C.3       6 UNK         0.0367 
     41 CB         23.9083   29.0617    1.0290 C.3       6 UNK        -0.1929 
     42 C          25.3807   30.9794    1.7571 C.2       6 UNK         0.5070 
     43 O          24.7022   31.9224    2.1634 O.2       6 UNK        -0.5237 
     44 N          26.5233   31.1279    1.0724 N.am      7 UNK        -0.4739 
     45 CA         27.1922   32.4074    0.8169 C.3       7 UNK         0.0276 
     46 CB         27.9671   32.3119   -0.5095 C.3       7 UNK        -0.1927 
     47 C          28.1187   32.8404    1.9734 C.2       7 UNK         0.5013 
     48 O          28.7464   33.8947    1.8663 O.2       7 UNK        -0.5193 
     49 N          28.1873   32.0358    3.0463 N.am      8 UNK        -0.4253 
     50 CA         28.9800   32.2195    4.2649 C.3       8 UNK         0.0242 
     51 CB         28.5192   33.4713    5.0434 C.3       8 UNK        -0.2000 
     52 C          30.5005   32.1782    4.0233 C.2       8 UNK         0.4948 
     53 O          31.2390   32.9226    4.6726 O.2       8 UNK        -0.5275 
     54 N          30.9546   31.3038    3.1121 N.am      9 UNK        -0.4246 
     55 CA         32.3756   31.0450    2.8707 C.3       9 UNK         0.0261 
     56 CB         32.5391   30.1918    1.6045 C.3       9 UNK        -0.1959 
     57 C          33.0273   30.3532    4.0806 C.2       9 UNK         0.5033 
     58 O          32.5499   29.3013    4.5149 O.2       9 UNK        -0.5390 
     59 N          34.1109   30.9470    4.5946 N.am      10 UNK        -0.4215 
     60 CA         34.8825   30.4498    5.7350 C.3       10 UNK         0.0240 
     61 CB         35.5480   31.6435    6.4463 C.3       10 UNK        -0.1982 
     62 C          35.8990   29.3873    5.2817 C.2       10 UNK         0.4970 
     63 O          37.1062   29.6352    5.3056 O.2       10 UNK        -0.4916 
     64 N          35.3843   28.2344    4.8422 N.am      11 UNK        -0.4279 
     65 CA         36.1694   27.1066    4.3114 C.3       11 UNK         0.1003 
     66 C          37.0033   26.3280    5.3709 C.2       11 UNK         0.5709 
     67 N          36.7754   26.5109    6.6664 N.am      11 UNK        -0.7358 
     68 O          37.8802   25.5472    5.0081 O.2       11 UNK        -0.4999 
     69 C69        35.2877   26.1342    3.4870 C.3       12 UNK        -0.0954 
     70 S70        34.3632   26.9779    2.1598 S.3       12 UNK        -0.2268 
     71 C71        33.2657   25.6466    1.5777 C.3       12 UNK         0.0203 
     72 H72        32.3820   24.6635   -1.4468 H         1 UNK         0.0888 
     73 H73        32.1902   22.9313   -1.7272 H         1 UNK         0.0888 
     74 H74        31.2047   24.0865   -2.6292 H         1 UNK         0.0888 
     75 H75        30.9548   21.8896   -0.1549 H         1 UNK         0.3017 
     76 H76        29.6084   23.2795    1.8851 H         1 UNK         0.0873 
     77 H77        28.8757   21.0767    2.7182 H         1 UNK         0.0745 
     78 H78        29.2185   20.3278    1.1813 H         1 UNK         0.0745 
     79 H79        30.5329   21.3406    4.6231 H         1 UNK         0.0705 
     80 H80        32.2745   21.2654    4.5025 H         1 UNK         0.0705 
     81 H81        32.9143   23.0405    2.2320 H         1 UNK         0.1334 
     82 H82        31.6312   26.9752    3.3366 H         1 UNK         0.1417 
     83 H83        30.0825   23.5563    5.4128 H         1 UNK         0.1562 
     84 H84        30.2509   27.3266    5.2243 H         1 UNK         0.0748 
     85 H85        30.2543   26.0730    6.4294 H         1 UNK         0.0748 
     86 H86        26.8876   25.9109    3.2046 H         1 UNK         0.0940 
     87 H87        28.5505   25.4747    2.9502 H         1 UNK         0.0940 
     88 H88        29.0603   28.0452    3.3678 H         1 UNK         0.0703 
     89 H89        28.4614   26.6580    0.9659 H         1 UNK         0.3081 
     90 H90        29.0311   29.2029   -1.3105 H         1 UNK         0.0719 
     91 H91        31.4234   28.9331   -0.8011 H         1 UNK         0.0809 
     92 H92        31.2154   27.2101   -0.5265 H         1 UNK         0.0809 
     93 H93        30.9921   27.8828   -2.1383 H         1 UNK         0.0809 
     94 H94        28.9955   26.2433   -1.1692 H         1 UNK         0.2990 
     95 H95        25.5808   26.1826   -2.3851 H         1 UNK         0.0690 
     96 H96        27.4102   25.9799   -4.1077 H         1 UNK         0.0788 
     97 H97        26.7240   24.4272   -3.6608 H         1 UNK         0.0788 
     98 H98        28.2946   24.9102   -3.0260 H         1 UNK         0.0788 
     99 H99        26.8599   24.0261   -1.1720 H         1 UNK         0.2993 
    100 H100       25.4427   24.3149    2.1009 H         1 UNK         0.0949 
    101 H101       24.7362   22.0569    1.3442 H         1 UNK         0.0767 
    102 H102       23.8288   23.3293    0.5436 H         1 UNK         0.0767 
    103 H103       25.0934   22.4832   -0.3276 H         1 UNK         0.0767 
    104 H104       27.4837   23.5600    2.3911 H         1 UNK         0.3013 
    105 H105       26.0257   27.8334    1.4415 H         1 UNK         0.3121 
    106 H106       24.4470   29.5535    3.0480 H         1 UNK         0.0774 
    107 H107       23.0698   29.7557    0.9561 H         1 UNK         0.0815 
    108 H108       24.3532   28.9784    0.0362 H         1 UNK         0.0815 
    109 H109       23.4986   28.0869    1.2939 H         1 UNK         0.0815 
    110 H110       27.0267   30.2978    0.7918 H         1 UNK         0.2987 
    111 H111       26.4354   33.1872    0.7067 H         1 UNK         0.0949 
    112 H112       28.8022   31.6150   -0.4446 H         1 UNK         0.0806 
    113 H113       27.3215   31.9887   -1.3263 H         1 UNK         0.0806 
    114 H114       28.3798   33.2820   -0.7892 H         1 UNK         0.0806 
    115 H115       27.6447   31.1795    3.0271 H         1 UNK         0.3010 
    116 H116       28.7631   31.3541    4.8925 H         1 UNK         0.0829 
    117 H117       28.7623   34.3921    4.5125 H         1 UNK         0.0813 
    118 H118       27.4432   33.4567    5.2166 H         1 UNK         0.0813 
    119 H119       29.0020   33.5238    6.0200 H         1 UNK         0.0813 
    120 H120       30.2937   30.7335    2.5915 H         1 UNK         0.3038 
    121 H121       32.8661   32.0051    2.6965 H         1 UNK         0.0769 
    122 H122       32.0716   29.2126    1.7169 H         1 UNK         0.0811 
    123 H123       33.5928   30.0243    1.3786 H         1 UNK         0.0811 
    124 H124       32.0932   30.6821    0.7392 H         1 UNK         0.0811 
    125 H125       34.4491   31.7949    4.1623 H         1 UNK         0.3204 
    126 H126       34.2057   29.9754    6.4493 H         1 UNK         0.0748 
    127 H127       36.1224   31.3109    7.3121 H         1 UNK         0.0771 
    128 H128       36.2315   32.1810    5.7877 H         1 UNK         0.0771 
    129 H129       34.8034   32.3534    6.8073 H         1 UNK         0.0771 
    130 H130       34.3761   28.1419    4.8013 H         1 UNK         0.2980 
    131 H131       36.9014   27.5332    3.6229 H         1 UNK         0.0545 
    132 H132       37.3260   26.0039    7.3412 H         1 UNK         0.3459 
    133 H133       36.0581   27.1472    6.9741 H         1 UNK         0.3459 
    134 H134       34.5819   25.6273    4.1469 H         1 UNK         0.0616 
    135 H135       35.8971   25.3543    3.0266 H         1 UNK         0.0616 
    136 H136       32.6360   26.0367    0.7804 H         1 UNK         0.0634 
    137 H137       33.8817   24.8660    1.1287 H         1 UNK         0.0634 
@<TRIPOS>BOND
     1    1    2 1    
     2    1   72 1    
     3    1   73 1    
     4    1   74 1    
     5    2    3 2    
     6    2    4 am   BACKBONE|DICT|INTERRES
     7    4    5 1    
     8    4   75 1    
     9    5    6 1    
    10    5   35 1    
    11    5   76 1    
    12    6    7 1    
    13    6   77 1    
    14    6   78 1    
    15    7    8 1    
    16    8    9 1    
    17    8   79 1    
    18    8   80 1    
    19    9   10 ar   
    20    9   14 ar   
    21   10   11 ar   
    22   10   81 1    
    23   11   12 ar   
    24   11   71 1    
    25   12   13 ar   
    26   12   82 1    
    27   13   14 ar   
    28   13   15 1    
    29   14   83 1    
    30   15   16 1    
    31   15   84 1    
    32   15   85 1    
    33   16   17 1    
    34   17   18 1    
    35   17   86 1    
    36   17   87 1    
    37   18   19 1    
    38   18   37 1    
    39   18   88 1    
    40   19   20 am   BACKBONE|DICT|INTERRES
    41   19   89 1    
    42   20   21 2    
    43   20   22 1    
    44   22   23 1    
    45   22   24 1    
    46   22   90 1    
    47   23   91 1    
    48   23   92 1    
    49   23   93 1    
    50   24   25 am   BACKBONE|DICT|INTERRES
    51   24   94 1    
    52   25   26 2    
    53   25   27 1    
    54   27   28 1    
    55   27   29 1    
    56   27   95 1    
    57   28   96 1    
    58   28   97 1    
    59   28   98 1    
    60   29   30 am   BACKBONE|DICT|INTERRES
    61   29   99 1    
    62   30   31 2    
    63   30   32 1    
    64   32   33 1    
    65   32   34 1    
    66   32  100 1    
    67   33  101 1    
    68   33  102 1    
    69   33  103 1    
    70   34   35 am   BACKBONE|DICT|INTERRES
    71   34  104 1    
    72   35   36 2    
    73   37   38 2    
    74   37   39 am   BACKBONE|DICT|INTERRES
    75   39   40 1    
    76   39  105 1    
    77   40   41 1    
    78   40   42 1    
    79   40  106 1    
    80   41  107 1    
    81   41  108 1    
    82   41  109 1    
    83   42   43 2    
    84   42   44 am   BACKBONE|DICT|INTERRES
    85   44   45 1    
    86   44  110 1    
    87   45   46 1    
    88   45   47 1    
    89   45  111 1    
    90   46  112 1    
    91   46  113 1    
    92   46  114 1    
    93   47   48 2    
    94   47   49 am   BACKBONE|DICT|INTERRES
    95   49   50 1    
    96   49  115 1    
    97   50   51 1    
    98   50   52 1    
    99   50  116 1    
   100   51  117 1    
   101   51  118 1    
   102   51  119 1    
   103   52   53 2    
   104   52   54 am   BACKBONE|DICT|INTERRES
   105   54   55 1    
   106   54  120 1    
   107   55   56 1    
   108   55   57 1    
   109   55  121 1    
   110   56  122 1    
   111   56  123 1    
   112   56  124 1    
   113   57   58 2    
   114   57   59 am   BACKBONE|DICT|INTERRES
   115   59   60 1    
   116   59  125 1    
   117   60   61 1    
   118   60   62 1    
   119   60  126 1    
   120   61  127 1    
   121   61  128 1    
   122   61  129 1    
   123   62   63 2    
   124   62   64 am   BACKBONE|DICT|INTERRES
   125   64   65 1    
   126   64  130 1    
   127   65   66 1    
   128   65   69 1    
   129   65  131 1    
   130   66   67 am   BACKBONE|DICT|INTERRES
   131   66   68 2    
   132   67  132 1    
   133   67  133 1    
   134   69   70 1    
   135   69  134 1    
   136   69  135 1    
   137   70   71 1    
   138   71  136 1    
   139   71  137 1    
@<TRIPOS>SUBSTRUCTURE
     1 UNK         1 GROUP             0       ****    0 ROOT    
