@<TRIPOS>MOLECULE
3R136
137   139    1
SMALL
USER_CHARGES


@<TRIPOS>ATOM
      1 CA         30.2687   24.9130    5.3191 C.3       0 UNK        -0.1979 
      2 C          29.1367   24.1729    4.6268 C.2       0 UNK         0.4864 
      3 O          28.0658   24.0028    5.2098 O.2       0 UNK        -0.5359 
      4 N          29.3693   23.7350    3.3824 N.am      1 UNK        -0.4318 
      5 CA         28.4221   22.9388    2.5876 C.3       1 UNK         0.0824 
      6 C6         29.1270   22.1641    1.4464 C.3       12 UNK        -0.0944 
      7 S7         30.4560   21.0866    2.0904 S.3       12 UNK        -0.2672 
      8 C8         31.9023   21.5738    1.0943 C.3       12 UNK         0.0333 
      9 C9         32.2332   23.0581    1.1941 C.ar      12 UNK        -0.0807 
     10 C10        32.6698   23.6157    2.4015 C.ar      12 UNK        -0.0894 
     11 C11        32.9971   24.9741    2.4746 C.ar      12 UNK        -0.0804 
     12 C12        32.8934   25.7694    1.3306 C.ar      12 UNK        -0.0824 
     13 C13        32.4625   25.2252    0.1191 C.ar      12 UNK        -0.0762 
     14 C14        32.1338   23.8683    0.0583 C.ar      12 UNK        -0.0782 
     15 C15        32.3935   26.0900   -1.1328 C.3       12 UNK         0.0230 
     16 S16        30.7004   26.2192   -1.7875 S.3       12 UNK        -0.2608 
     17 C17        29.8840   27.2889   -0.5535 C.3       12 UNK        -0.0989 
     18 CA         29.0865   28.4399   -1.2206 C.3       5 UNK         0.0716 
     19 N          28.0742   27.9275   -2.1455 N.am      5 UNK        -0.4135 
     20 C          27.6246   28.5731   -3.2287 C.2       4 UNK         0.5031 
     21 O          28.0500   29.6692   -3.5973 O.2       4 UNK        -0.5229 
     22 CA         26.5247   27.8825   -4.0582 C.3       4 UNK         0.0329 
     23 CB         27.1450   27.1245   -5.2432 C.3       4 UNK        -0.2001 
     24 N          25.7067   26.9563   -3.2721 N.am      4 UNK        -0.4303 
     25 C          24.7843   27.3310   -2.3760 C.2       3 UNK         0.5044 
     26 O          24.4520   28.5011   -2.1821 O.2       3 UNK        -0.5152 
     27 CA         24.1291   26.2206   -1.5334 C.3       3 UNK         0.0319 
     28 CB         24.1599   24.8221   -2.1929 C.3       3 UNK        -0.2001 
     29 N          24.7009   26.1823   -0.1826 N.am      3 UNK        -0.4354 
     30 C          25.9819   25.9569    0.1490 C.2       2 UNK         0.4964 
     31 O          26.8636   25.6876   -0.6708 O.2       2 UNK        -0.5047 
     32 CA         26.3592   26.0905    1.6396 C.3       2 UNK         0.0288 
     33 CB         25.1530   26.0838    2.6076 C.3       2 UNK        -0.2113 
     34 N          27.3584   25.0992    2.0518 N.am      2 UNK        -0.4145 
     35 C          27.2292   23.7623    2.0520 C.2       1 UNK         0.5006 
     36 O          26.2176   23.1673    1.6748 O.2       1 UNK        -0.5103 
     37 C          28.4031   29.3107   -0.1506 C.2       5 UNK         0.5055 
     38 O          27.2362   29.0811    0.1773 O.2       5 UNK        -0.5220 
     39 N          29.1498   30.2666    0.4164 N.am      6 UNK        -0.4450 
     40 CA         28.7281   31.0294    1.5924 C.3       6 UNK         0.0367 
     41 CB         29.6103   32.2795    1.7457 C.3       6 UNK        -0.1929 
     42 C          28.8077   30.1283    2.8350 C.2       6 UNK         0.5070 
     43 O          29.9033   29.6725    3.1723 O.2       6 UNK        -0.5237 
     44 N          27.6506   29.8619    3.4576 N.am      7 UNK        -0.4739 
     45 CA         27.4674   28.9536    4.5954 C.3       7 UNK         0.0276 
     46 CB         25.9991   28.9997    5.0495 C.3       7 UNK        -0.1927 
     47 C          28.4156   29.2769    5.7619 C.2       7 UNK         0.5013 
     48 O          28.2988   30.3488    6.3602 O.2       7 UNK        -0.5193 
     49 N          29.3755   28.3726    6.0027 N.am      8 UNK        -0.4253 
     50 CA         30.5204   28.4591    6.9222 C.3       8 UNK         0.0242 
     51 CB         30.0716   28.6239    8.3867 C.3       8 UNK        -0.2000 
     52 C          31.5596   29.5261    6.5329 C.2       8 UNK         0.4948 
     53 O          32.7537   29.2264    6.5341 O.2       8 UNK        -0.5275 
     54 N          31.0998   30.7330    6.1810 N.am      9 UNK        -0.4246 
     55 CA         31.8979   31.9090    5.8230 C.3       9 UNK         0.0261 
     56 CB         30.9513   33.0818    5.5246 C.3       9 UNK        -0.1959 
     57 C          32.8864   31.7028    4.6608 C.2       9 UNK         0.5033 
     58 O          33.9122   32.3839    4.6292 O.2       9 UNK        -0.5390 
     59 N          32.5897   30.7684    3.7455 N.am      10 UNK        -0.4215 
     60 CA         33.4913   30.3677    2.6620 C.3       10 UNK         0.0240 
     61 CB         32.7094   29.5485    1.6243 C.3       10 UNK        -0.1982 
     62 C          34.7460   29.6038    3.1333 C.2       10 UNK         0.4970 
     63 O          35.7348   29.6008    2.3986 O.2       10 UNK        -0.4916 
     64 N          34.6978   28.9843    4.3213 N.am      11 UNK        -0.4279 
     65 CA         35.8351   28.2933    4.9534 C.3       11 UNK         0.1003 
     66 C          36.3437   29.0326    6.2196 C.2       11 UNK         0.5709 
     67 N          35.4898   29.6981    6.9872 N.am      11 UNK        -0.7358 
     68 O          37.5391   29.0123    6.5037 O.2       11 UNK        -0.4999 
     69 C69        35.5088   26.8127    5.2800 C.3       12 UNK        -0.0954 
     70 S70        35.2789   25.8108    3.7746 S.3       12 UNK        -0.2268 
     71 C71        33.4765   25.5945    3.7773 C.3       12 UNK         0.0203 
     72 H72        31.0762   24.2216    5.5581 H         1 UNK         0.0888 
     73 H73        29.9219   25.3568    6.2520 H         1 UNK         0.0888 
     74 H74        30.6608   25.7059    4.6833 H         1 UNK         0.0888 
     75 H75        30.2772   23.8753    2.9596 H         1 UNK         0.3017 
     76 H76        27.9879   22.1941    3.2590 H         1 UNK         0.0873 
     77 H77        28.4129   21.5274    0.9205 H         1 UNK         0.0745 
     78 H78        29.5216   22.8539    0.6990 H         1 UNK         0.0745 
     79 H79        32.7660   20.9958    1.4258 H         1 UNK         0.0705 
     80 H80        31.7239   21.2839    0.0575 H         1 UNK         0.0705 
     81 H81        32.7619   22.9888    3.2784 H         1 UNK         0.1334 
     82 H82        33.1794   26.8083    1.3814 H         1 UNK         0.1417 
     83 H83        31.8079   23.4444   -0.8822 H         1 UNK         0.1562 
     84 H84        33.0314   25.6482   -1.8996 H         1 UNK         0.0748 
     85 H85        32.7884   27.0903   -0.9479 H         1 UNK         0.0748 
     86 H86        30.6357   27.6919    0.1275 H         1 UNK         0.0940 
     87 H87        29.2327   26.6617    0.0573 H         1 UNK         0.0940 
     88 H88        29.7887   29.0665   -1.7753 H         1 UNK         0.0703 
     89 H89        27.6295   27.0595   -1.8631 H         1 UNK         0.3081 
     90 H90        25.8734   28.6636   -4.4566 H         1 UNK         0.0719 
     91 H91        27.8059   26.3234   -4.9092 H         1 UNK         0.0809 
     92 H92        26.3770   26.6849   -5.8800 H         1 UNK         0.0809 
     93 H93        27.7367   27.7953   -5.8678 H         1 UNK         0.0809 
     94 H94        25.9297   25.9737   -3.3426 H         1 UNK         0.2990 
     95 H95        23.0811   26.5023   -1.4190 H         1 UNK         0.0690 
     96 H96        23.5773   24.1076   -1.6112 H         1 UNK         0.0788 
     97 H97        25.1688   24.4190   -2.2837 H         1 UNK         0.0788 
     98 H98        23.7235   24.8505   -3.1924 H         1 UNK         0.0788 
     99 H99        24.0638   26.4243    0.5631 H         1 UNK         0.2993 
    100 H100       26.8468   27.0602    1.7395 H         1 UNK         0.0949 
    101 H101       24.5045   26.9450    2.4431 H         1 UNK         0.0767 
    102 H102       24.5476   25.1827    2.5005 H         1 UNK         0.0767 
    103 H103       25.4846   26.1334    3.6450 H         1 UNK         0.0767 
    104 H104       28.2477   25.4705    2.3496 H         1 UNK         0.3013 
    105 H105       30.1043   30.3920    0.1145 H         1 UNK         0.3121 
    106 H106       27.6974   31.3602    1.4457 H         1 UNK         0.0774 
    107 H107       30.6500   32.0294    1.9574 H         1 UNK         0.0815 
    108 H108       29.2515   32.9044    2.5635 H         1 UNK         0.0815 
    109 H109       29.5906   32.8918    0.8440 H         1 UNK         0.0815 
    110 H110       26.8102   30.2896    3.0961 H         1 UNK         0.2987 
    111 H111       27.6762   27.9427    4.2393 H         1 UNK         0.0949 
    112 H112       25.7131   29.9956    5.3907 H         1 UNK         0.0806 
    113 H113       25.3223   28.7152    4.2440 H         1 UNK         0.0806 
    114 H114       25.8249   28.3099    5.8765 H         1 UNK         0.0806 
    115 H115       29.3912   27.5662    5.3969 H         1 UNK         0.3010 
    116 H116       31.0323   27.4985    6.8493 H         1 UNK         0.0829 
    117 H117       29.3892   27.8275    8.6835 H         1 UNK         0.0813 
    118 H118       30.9284   28.5845    9.0608 H         1 UNK         0.0813 
    119 H119       29.5703   29.5766    8.5594 H         1 UNK         0.0813 
    120 H120       30.0897   30.8537    6.2051 H         1 UNK         0.3038 
    121 H121       32.4934   32.1671    6.7010 H         1 UNK         0.0769 
    122 H122       30.2714   32.8479    4.7059 H         1 UNK         0.0811 
    123 H123       31.5082   33.9773    5.2448 H         1 UNK         0.0811 
    124 H124       30.3484   33.3358    6.3966 H         1 UNK         0.0811 
    125 H125       31.6942   30.2889    3.7988 H         1 UNK         0.3204 
    126 H126       33.8447   31.2759    2.1691 H         1 UNK         0.0748 
    127 H127       33.3679   29.1611    0.8455 H         1 UNK         0.0771 
    128 H128       32.1976   28.7043    2.0861 H         1 UNK         0.0771 
    129 H129       31.9587   30.1615    1.1297 H         1 UNK         0.0771 
    130 H130       33.8684   29.0766    4.8973 H         1 UNK         0.2980 
    131 H131       36.6834   28.2852    4.2664 H         1 UNK         0.0545 
    132 H132       35.8339   30.1816    7.8007 H         1 UNK         0.3459 
    133 H133       34.4891   29.6442    6.8146 H         1 UNK         0.3459 
    134 H134       36.3259   26.3553    5.8412 H         1 UNK         0.0616 
    135 H135       34.6258   26.7425    5.9183 H         1 UNK         0.0616 
    136 H136       33.1983   24.9728    4.6288 H         1 UNK         0.0634 
    137 H137       32.9934   26.5625    3.9210 H         1 UNK         0.0634 
@<TRIPOS>BOND
     1    1    2 1    
     2    1   72 1    
     3    1   73 1    
     4    1   74 1    
     5    2    3 2    
     6    2    4 am   BACKBONE|DICT|INTERRES
     7    4    5 1    
     8    4   75 1    
     9    5    6 1    
    10    5   35 1    
    11    5   76 1    
    12    6    7 1    
    13    6   77 1    
    14    6   78 1    
    15    7    8 1    
    16    8    9 1    
    17    8   79 1    
    18    8   80 1    
    19    9   10 ar   
    20    9   14 ar   
    21   10   11 ar   
    22   10   81 1    
    23   11   12 ar   
    24   11   71 1    
    25   12   13 ar   
    26   12   82 1    
    27   13   14 ar   
    28   13   15 1    
    29   14   83 1    
    30   15   16 1    
    31   15   84 1    
    32   15   85 1    
    33   16   17 1    
    34   17   18 1    
    35   17   86 1    
    36   17   87 1    
    37   18   19 1    
    38   18   37 1    
    39   18   88 1    
    40   19   20 am   BACKBONE|DICT|INTERRES
    41   19   89 1    
    42   20   21 2    
    43   20   22 1    
    44   22   23 1    
    45   22   24 1    
    46   22   90 1    
    47   23   91 1    
    48   23   92 1    
    49   23   93 1    
    50   24   25 am   BACKBONE|DICT|INTERRES
    51   24   94 1    
    52   25   26 2    
    53   25   27 1    
    54   27   28 1    
    55   27   29 1    
    56   27   95 1    
    57   28   96 1    
    58   28   97 1    
    59   28   98 1    
    60   29   30 am   BACKBONE|DICT|INTERRES
    61   29   99 1    
    62   30   31 2    
    63   30   32 1    
    64   32   33 1    
    65   32   34 1    
    66   32  100 1    
    67   33  101 1    
    68   33  102 1    
    69   33  103 1    
    70   34   35 am   BACKBONE|DICT|INTERRES
    71   34  104 1    
    72   35   36 2    
    73   37   38 2    
    74   37   39 am   BACKBONE|DICT|INTERRES
    75   39   40 1    
    76   39  105 1    
    77   40   41 1    
    78   40   42 1    
    79   40  106 1    
    80   41  107 1    
    81   41  108 1    
    82   41  109 1    
    83   42   43 2    
    84   42   44 am   BACKBONE|DICT|INTERRES
    85   44   45 1    
    86   44  110 1    
    87   45   46 1    
    88   45   47 1    
    89   45  111 1    
    90   46  112 1    
    91   46  113 1    
    92   46  114 1    
    93   47   48 2    
    94   47   49 am   BACKBONE|DICT|INTERRES
    95   49   50 1    
    96   49  115 1    
    97   50   51 1    
    98   50   52 1    
    99   50  116 1    
   100   51  117 1    
   101   51  118 1    
   102   51  119 1    
   103   52   53 2    
   104   52   54 am   BACKBONE|DICT|INTERRES
   105   54   55 1    
   106   54  120 1    
   107   55   56 1    
   108   55   57 1    
   109   55  121 1    
   110   56  122 1    
   111   56  123 1    
   112   56  124 1    
   113   57   58 2    
   114   57   59 am   BACKBONE|DICT|INTERRES
   115   59   60 1    
   116   59  125 1    
   117   60   61 1    
   118   60   62 1    
   119   60  126 1    
   120   61  127 1    
   121   61  128 1    
   122   61  129 1    
   123   62   63 2    
   124   62   64 am   BACKBONE|DICT|INTERRES
   125   64   65 1    
   126   64  130 1    
   127   65   66 1    
   128   65   69 1    
   129   65  131 1    
   130   66   67 am   BACKBONE|DICT|INTERRES
   131   66   68 2    
   132   67  132 1    
   133   67  133 1    
   134   69   70 1    
   135   69  134 1    
   136   69  135 1    
   137   70   71 1    
   138   71  136 1    
   139   71  137 1    
@<TRIPOS>SUBSTRUCTURE
     1 UNK         1 GROUP             0       ****    0 ROOT    
