@<TRIPOS>MOLECULE
3R136
137   139    1
SMALL
USER_CHARGES


@<TRIPOS>ATOM
      1 CA         30.4757   24.1452   -5.4470 C.3       0 UNK        -0.1979 
      2 C          30.0171   25.0712   -4.3298 C.2       0 UNK         0.4864 
      3 O          29.6193   26.2055   -4.6009 O.2       0 UNK        -0.5359 
      4 N          30.0784   24.5990   -3.0785 N.am      1 UNK        -0.4318 
      5 CA         29.6416   25.3309   -1.8840 C.3       1 UNK         0.0824 
      6 C6         30.1807   24.6941   -0.5767 C.3       12 UNK        -0.0944 
      7 S7         31.9972   24.5574   -0.5745 S.3       12 UNK        -0.2672 
      8 C8         32.2490   23.0511    0.4186 C.3       12 UNK         0.0333 
      9 C9         32.2134   23.3357    1.9143 C.ar      12 UNK        -0.0807 
     10 C10        33.1921   24.1578    2.4806 C.ar      12 UNK        -0.0894 
     11 C11        33.2210   24.3873    3.8575 C.ar      12 UNK        -0.0804 
     12 C12        32.2665   23.7762    4.6738 C.ar      12 UNK        -0.0824 
     13 C13        31.2686   22.9657    4.1220 C.ar      12 UNK        -0.0762 
     14 C14        31.2451   22.7492    2.7388 C.ar      12 UNK        -0.0782 
     15 C15        30.2456   22.2991    5.0364 C.3       12 UNK         0.0230 
     16 S16        28.5806   23.0398    4.9332 S.3       12 UNK        -0.2608 
     17 C17        28.8936   24.8087    5.2610 C.3       12 UNK        -0.0989 
     18 CA         28.4489   25.6604    4.0416 C.3       5 UNK         0.0716 
     19 N          26.9959   25.8261    3.9193 N.am      5 UNK        -0.4135 
     20 C          26.1678   26.4242    4.7926 C.2       4 UNK         0.5031 
     21 O          26.5204   26.8409    5.8964 O.2       4 UNK        -0.5229 
     22 CA         24.6950   26.6322    4.3763 C.3       4 UNK         0.0329 
     23 CB         24.3602   28.1334    4.3188 C.3       4 UNK        -0.2001 
     24 N          24.3504   26.0339    3.0862 N.am      4 UNK        -0.4303 
     25 C          24.1536   24.7285    2.8593 C.2       3 UNK         0.5044 
     26 O          24.1338   23.8746    3.7458 O.2       3 UNK        -0.5152 
     27 CA         23.9836   24.2978    1.3881 C.3       3 UNK         0.0319 
     28 CB         22.4990   24.0604    1.0676 C.3       3 UNK        -0.2001 
     29 N          24.5449   25.2361    0.4034 N.am      3 UNK        -0.4354 
     30 C          25.8321   25.6035    0.3288 C.2       2 UNK         0.4964 
     31 O          26.6978   25.2373    1.1286 O.2       2 UNK        -0.5047 
     32 CA         26.1978   26.6060   -0.7775 C.3       2 UNK         0.0288 
     33 CB         25.9570   28.0441   -0.2891 C.3       2 UNK        -0.2113 
     34 N          27.6028   26.4657   -1.1576 N.am      2 UNK        -0.4145 
     35 C          28.1043   25.4199   -1.8239 C.2       1 UNK         0.5006 
     36 O          27.4102   24.5295   -2.3259 O.2       1 UNK        -0.5103 
     37 C          29.1328   27.0344    3.9400 C.2       5 UNK         0.5055 
     38 O          29.6901   27.5483    4.9135 O.2       5 UNK        -0.5220 
     39 N          29.0423   27.6134    2.7392 N.am      6 UNK        -0.4450 
     40 CA         29.6747   28.8683    2.3664 C.3       6 UNK         0.0367 
     41 CB         28.6865   30.0294    2.5770 C.3       6 UNK        -0.1929 
     42 C          30.1113   28.7807    0.9042 C.2       6 UNK         0.5070 
     43 O          29.4678   28.0841    0.1156 O.2       6 UNK        -0.5237 
     44 N          31.1761   29.5103    0.5738 N.am      7 UNK        -0.4739 
     45 CA         31.7118   29.6641   -0.7748 C.3       7 UNK         0.0276 
     46 CB         32.8791   28.6769   -0.9837 C.3       7 UNK        -0.1927 
     47 C          32.0740   31.1453   -0.9476 C.2       7 UNK         0.5013 
     48 O          31.1665   31.9780   -0.9790 O.2       7 UNK        -0.5193 
     49 N          33.3750   31.4659   -1.0073 N.am      8 UNK        -0.4253 
     50 CA         33.8940   32.8411   -0.9910 C.3       8 UNK         0.0242 
     51 CB         35.3850   32.8250   -1.3659 C.3       8 UNK        -0.2000 
     52 C          33.6850   33.5509    0.3630 C.2       8 UNK         0.4948 
     53 O          33.6292   34.7806    0.4035 O.2       8 UNK        -0.5275 
     54 N          33.5578   32.7619    1.4340 N.am      9 UNK        -0.4246 
     55 CA         33.1744   33.1585    2.7823 C.3       9 UNK         0.0261 
     56 CB         34.4366   33.4568    3.6112 C.3       9 UNK        -0.1959 
     57 C          32.3664   31.9998    3.3838 C.2       9 UNK         0.5033 
     58 O          32.3644   30.9020    2.8152 O.2       9 UNK        -0.5390 
     59 N          31.6974   32.2563    4.5136 N.am      10 UNK        -0.4215 
     60 CA         30.9846   31.2415    5.2916 C.3       10 UNK         0.0240 
     61 CB         29.9286   31.9222    6.1774 C.3       10 UNK        -0.1982 
     62 C          31.9673   30.4249    6.1422 C.2       10 UNK         0.4970 
     63 O          32.8494   31.0148    6.7713 O.2       10 UNK        -0.4916 
     64 N          31.7813   29.1010    6.1704 N.am      11 UNK        -0.4279 
     65 CA         32.5811   28.1713    6.9840 C.3       11 UNK         0.1003 
     66 C          32.0315   27.9741    8.4265 C.2       11 UNK         0.5709 
     67 N          30.8623   28.4986    8.7758 N.am      11 UNK        -0.7358 
     68 O          32.6889   27.3456    9.2529 O.2       11 UNK        -0.4999 
     69 C69        32.7742   26.8122    6.2650 C.3       12 UNK        -0.0954 
     70 S70        33.6922   26.9812    4.6976 S.3       12 UNK        -0.2268 
     71 C71        34.2952   25.2814    4.4582 C.3       12 UNK         0.0203 
     72 H72        31.2978   24.6008   -5.9984 H         1 UNK         0.0888 
     73 H73        30.8163   23.1829   -5.0650 H         1 UNK         0.0888 
     74 H74        29.6571   23.9632   -6.1429 H         1 UNK         0.0888 
     75 H75        30.4053   23.6581   -2.9150 H         1 UNK         0.3017 
     76 H76        30.0357   26.3475   -1.9559 H         1 UNK         0.0873 
     77 H77        29.7415   23.7058   -0.4271 H         1 UNK         0.0745 
     78 H78        29.8921   25.2895    0.2920 H         1 UNK         0.0745 
     79 H79        33.2260   22.6345    0.1693 H         1 UNK         0.0705 
     80 H80        31.5184   22.2903    0.1402 H         1 UNK         0.0705 
     81 H81        33.9374   24.6156    1.8442 H         1 UNK         0.1334 
     82 H82        32.2985   23.9378    5.7424 H         1 UNK         0.1417 
     83 H83        30.4840   22.1104    2.3114 H         1 UNK         0.1562 
     84 H84        30.5788   22.3348    6.0749 H         1 UNK         0.0748 
     85 H85        30.1734   21.2408    4.7815 H         1 UNK         0.0748 
     86 H86        29.9514   24.9548    5.4729 H         1 UNK         0.0940 
     87 H87        28.3772   25.1037    6.1744 H         1 UNK         0.0940 
     88 H88        28.7649   25.1245    3.1440 H         1 UNK         0.0703 
     89 H89        26.6217   25.5360    3.0207 H         1 UNK         0.3081 
     90 H90        24.0738   26.1719    5.1476 H         1 UNK         0.0719 
     91 H91        24.9637   28.6534    3.5735 H         1 UNK         0.0809 
     92 H92        23.3099   28.2981    4.0773 H         1 UNK         0.0809 
     93 H93        24.5464   28.6143    5.2802 H         1 UNK         0.0809 
     94 H94        24.3330   26.6555    2.2913 H         1 UNK         0.2990 
     95 H95        24.5139   23.3503    1.2714 H         1 UNK         0.0690 
     96 H96        22.3683   23.6544    0.0643 H         1 UNK         0.0788 
     97 H97        21.9185   24.9813    1.1373 H         1 UNK         0.0788 
     98 H98        22.0584   23.3444    1.7631 H         1 UNK         0.0788 
     99 H99        23.8976   25.6039   -0.2799 H         1 UNK         0.2993 
    100 H100       25.5779   26.4134   -1.6559 H         1 UNK         0.0949 
    101 H101       26.2286   28.7723   -1.0538 H         1 UNK         0.0767 
    102 H102       24.9064   28.2082   -0.0459 H         1 UNK         0.0767 
    103 H103       26.5396   28.2684    0.6054 H         1 UNK         0.0767 
    104 H104       28.2569   27.1253   -0.7349 H         1 UNK         0.3013 
    105 H105       28.6040   27.1194    1.9718 H         1 UNK         0.3121 
    106 H106       30.5675   29.0119    2.9765 H         1 UNK         0.0774 
    107 H107       29.1616   30.9874    2.3615 H         1 UNK         0.0815 
    108 H108       27.8170   29.9420    1.9248 H         1 UNK         0.0815 
    109 H109       28.3268   30.0670    3.6053 H         1 UNK         0.0815 
    110 H110       31.6206   30.0669    1.3029 H         1 UNK         0.2987 
    111 H111       30.9372   29.4456   -1.5138 H         1 UNK         0.0949 
    112 H112       33.3291   28.7966   -1.9702 H         1 UNK         0.0806 
    113 H113       33.6623   28.7981   -0.2344 H         1 UNK         0.0806 
    114 H114       32.5269   27.6469   -0.9199 H         1 UNK         0.0806 
    115 H115       34.0565   30.7206   -0.9884 H         1 UNK         0.3010 
    116 H116       33.3557   33.4162   -1.7477 H         1 UNK         0.0829 
    117 H117       35.5419   32.3920   -2.3541 H         1 UNK         0.0813 
    118 H118       35.7913   33.8372   -1.3898 H         1 UNK         0.0813 
    119 H119       35.9767   32.2539   -0.6493 H         1 UNK         0.0813 
    120 H120       33.5632   31.7582    1.3032 H         1 UNK         0.3038 
    121 H121       32.5349   34.0429    2.7395 H         1 UNK         0.0769 
    122 H122       34.1808   33.7692    4.6243 H         1 UNK         0.0811 
    123 H123       35.0221   34.2604    3.1640 H         1 UNK         0.0811 
    124 H124       35.0802   32.5798    3.6924 H         1 UNK         0.0811 
    125 H125       31.7849   33.1688    4.9374 H         1 UNK         0.3204 
    126 H126       30.4680   30.5682    4.6110 H         1 UNK         0.0748 
    127 H127       29.3613   31.1833    6.7449 H         1 UNK         0.0771 
    128 H128       30.3816   32.6079    6.8948 H         1 UNK         0.0771 
    129 H129       29.2134   32.4861    5.5781 H         1 UNK         0.0771 
    130 H130       31.0206   28.6729    5.6465 H         1 UNK         0.2980 
    131 H131       33.5765   28.5997    7.1165 H         1 UNK         0.0545 
    132 H132       30.5236   28.3679    9.7158 H         1 UNK         0.3459 
    133 H133       30.3094   29.0049    8.1038 H         1 UNK         0.3459 
    134 H134       33.3227   26.1195    6.9057 H         1 UNK         0.0616 
    135 H135       31.8097   26.3477    6.0609 H         1 UNK         0.0616 
    136 H136       34.6505   24.8688    5.4035 H         1 UNK         0.0634 
    137 H137       35.1642   25.3137    3.7992 H         1 UNK         0.0634 
@<TRIPOS>BOND
     1    1    2 1    
     2    1   72 1    
     3    1   73 1    
     4    1   74 1    
     5    2    3 2    
     6    2    4 am   BACKBONE|DICT|INTERRES
     7    4    5 1    
     8    4   75 1    
     9    5    6 1    
    10    5   35 1    
    11    5   76 1    
    12    6    7 1    
    13    6   77 1    
    14    6   78 1    
    15    7    8 1    
    16    8    9 1    
    17    8   79 1    
    18    8   80 1    
    19    9   10 ar   
    20    9   14 ar   
    21   10   11 ar   
    22   10   81 1    
    23   11   12 ar   
    24   11   71 1    
    25   12   13 ar   
    26   12   82 1    
    27   13   14 ar   
    28   13   15 1    
    29   14   83 1    
    30   15   16 1    
    31   15   84 1    
    32   15   85 1    
    33   16   17 1    
    34   17   18 1    
    35   17   86 1    
    36   17   87 1    
    37   18   19 1    
    38   18   37 1    
    39   18   88 1    
    40   19   20 am   BACKBONE|DICT|INTERRES
    41   19   89 1    
    42   20   21 2    
    43   20   22 1    
    44   22   23 1    
    45   22   24 1    
    46   22   90 1    
    47   23   91 1    
    48   23   92 1    
    49   23   93 1    
    50   24   25 am   BACKBONE|DICT|INTERRES
    51   24   94 1    
    52   25   26 2    
    53   25   27 1    
    54   27   28 1    
    55   27   29 1    
    56   27   95 1    
    57   28   96 1    
    58   28   97 1    
    59   28   98 1    
    60   29   30 am   BACKBONE|DICT|INTERRES
    61   29   99 1    
    62   30   31 2    
    63   30   32 1    
    64   32   33 1    
    65   32   34 1    
    66   32  100 1    
    67   33  101 1    
    68   33  102 1    
    69   33  103 1    
    70   34   35 am   BACKBONE|DICT|INTERRES
    71   34  104 1    
    72   35   36 2    
    73   37   38 2    
    74   37   39 am   BACKBONE|DICT|INTERRES
    75   39   40 1    
    76   39  105 1    
    77   40   41 1    
    78   40   42 1    
    79   40  106 1    
    80   41  107 1    
    81   41  108 1    
    82   41  109 1    
    83   42   43 2    
    84   42   44 am   BACKBONE|DICT|INTERRES
    85   44   45 1    
    86   44  110 1    
    87   45   46 1    
    88   45   47 1    
    89   45  111 1    
    90   46  112 1    
    91   46  113 1    
    92   46  114 1    
    93   47   48 2    
    94   47   49 am   BACKBONE|DICT|INTERRES
    95   49   50 1    
    96   49  115 1    
    97   50   51 1    
    98   50   52 1    
    99   50  116 1    
   100   51  117 1    
   101   51  118 1    
   102   51  119 1    
   103   52   53 2    
   104   52   54 am   BACKBONE|DICT|INTERRES
   105   54   55 1    
   106   54  120 1    
   107   55   56 1    
   108   55   57 1    
   109   55  121 1    
   110   56  122 1    
   111   56  123 1    
   112   56  124 1    
   113   57   58 2    
   114   57   59 am   BACKBONE|DICT|INTERRES
   115   59   60 1    
   116   59  125 1    
   117   60   61 1    
   118   60   62 1    
   119   60  126 1    
   120   61  127 1    
   121   61  128 1    
   122   61  129 1    
   123   62   63 2    
   124   62   64 am   BACKBONE|DICT|INTERRES
   125   64   65 1    
   126   64  130 1    
   127   65   66 1    
   128   65   69 1    
   129   65  131 1    
   130   66   67 am   BACKBONE|DICT|INTERRES
   131   66   68 2    
   132   67  132 1    
   133   67  133 1    
   134   69   70 1    
   135   69  134 1    
   136   69  135 1    
   137   70   71 1    
   138   71  136 1    
   139   71  137 1    
@<TRIPOS>SUBSTRUCTURE
     1 UNK         1 GROUP             0       ****    0 ROOT    
