@<TRIPOS>MOLECULE
3R136
137   139    1
SMALL
USER_CHARGES


@<TRIPOS>ATOM
      1 CA         27.7871   21.0717    3.6669 C.3       0 UNK        -0.1979 
      2 C          27.6713   21.1440    2.1535 C.2       0 UNK         0.4864 
      3 O          26.7095   20.6258    1.5840 O.2       0 UNK        -0.5359 
      4 N          28.6394   21.7940    1.4929 N.am      1 UNK        -0.4318 
      5 CA         28.7619   21.9130    0.0318 C.3       1 UNK         0.0824 
      6 C6         30.2275   22.1767   -0.4083 C.3       12 UNK        -0.0944 
      7 S7         31.3872   20.9263    0.2489 S.3       12 UNK        -0.2672 
      8 C8         32.8185   21.9384    0.7634 C.3       12 UNK         0.0333 
      9 C9         32.4754   23.0468    1.7560 C.ar      12 UNK        -0.0807 
     10 C10        32.9748   24.3366    1.5503 C.ar      12 UNK        -0.0894 
     11 C11        32.6868   25.3718    2.4444 C.ar      12 UNK        -0.0804 
     12 C12        31.8681   25.1027    3.5489 C.ar      12 UNK        -0.0824 
     13 C13        31.3408   23.8255    3.7581 C.ar      12 UNK        -0.0762 
     14 C14        31.6736   22.7947    2.8740 C.ar      12 UNK        -0.0782 
     15 C15        30.4140   23.5479    4.9377 C.3       12 UNK         0.0230 
     16 S16        29.0412   24.7455    5.1276 S.3       12 UNK        -0.2608 
     17 C17        28.3900   24.9933    3.4349 C.3       12 UNK        -0.0989 
     18 CA         28.6366   26.4425    2.9354 C.3       5 UNK         0.0716 
     19 N          28.7502   26.5094    1.4768 N.am      5 UNK        -0.4135 
     20 C          29.4825   27.4246    0.8254 C.2       4 UNK         0.5031 
     21 O          30.1700   28.2812    1.3780 O.2       4 UNK        -0.5229 
     22 CA         29.4264   27.3979   -0.7104 C.3       4 UNK         0.0329 
     23 CB         30.4735   26.4237   -1.2733 C.3       4 UNK        -0.2001 
     24 N          28.0967   27.0619   -1.2263 N.am      4 UNK        -0.4303 
     25 C          27.0235   27.8555   -1.0863 C.2       3 UNK         0.5044 
     26 O          27.0506   28.9447   -0.5163 O.2       3 UNK        -0.5152 
     27 CA         25.6808   27.3457   -1.6355 C.3       3 UNK         0.0319 
     28 CB         25.4943   27.7983   -3.0921 C.3       3 UNK        -0.2001 
     29 N          25.4981   25.8959   -1.5524 N.am      3 UNK        -0.4354 
     30 C          25.5979   25.1427   -0.4480 C.2       2 UNK         0.4964 
     31 O          25.9047   25.5847    0.6627 O.2       2 UNK        -0.5047 
     32 CA         25.3444   23.6314   -0.6153 C.3       2 UNK         0.0288 
     33 CB         24.9147   23.2116   -2.0405 C.3       2 UNK        -0.2113 
     34 N          26.4915   22.8248   -0.1900 N.am      2 UNK        -0.4145 
     35 C          27.7750   22.9489   -0.5590 C.2       1 UNK         0.5006 
     36 O          28.1844   23.8313   -1.3177 O.2       1 UNK        -0.5103 
     37 C          27.5778   27.4343    3.4623 C.2       5 UNK         0.5055 
     38 O          27.7447   27.9664    4.5608 O.2       5 UNK        -0.5220 
     39 N          26.5088   27.6677    2.6840 N.am      6 UNK        -0.4450 
     40 CA         25.4410   28.6163    3.0134 C.3       6 UNK         0.0367 
     41 CB         24.2502   28.4027    2.0667 C.3       6 UNK        -0.1929 
     42 C          25.9009   30.0858    2.9803 C.2       6 UNK         0.5070 
     43 O          25.4703   30.8695    3.8276 O.2       6 UNK        -0.5237 
     44 N          26.7511   30.4385    2.0065 N.am      7 UNK        -0.4739 
     45 CA         27.3553   31.7655    1.8673 C.3       7 UNK         0.0276 
     46 CB         27.9996   31.8749    0.4753 C.3       7 UNK        -0.1927 
     47 C          28.4073   32.0451    2.9536 C.2       7 UNK         0.5013 
     48 O          29.0337   31.1162    3.4691 O.2       7 UNK        -0.5193 
     49 N          28.6446   33.3339    3.2319 N.am      8 UNK        -0.4253 
     50 CA         29.6715   33.8267    4.1579 C.3       8 UNK         0.0242 
     51 CB         29.2839   35.2427    4.6248 C.3       8 UNK        -0.2000 
     52 C          31.0860   33.7708    3.5401 C.2       8 UNK         0.4948 
     53 O          31.7803   34.7870    3.4822 O.2       8 UNK        -0.5275 
     54 N          31.4808   32.5809    3.0721 N.am      9 UNK        -0.4246 
     55 CA         32.7493   32.3084    2.3915 C.3       9 UNK         0.0261 
     56 CB         32.5420   31.1209    1.4351 C.3       9 UNK        -0.1959 
     57 C          33.9257   32.0436    3.3507 C.2       9 UNK         0.5033 
     58 O          35.0522   31.8834    2.8768 O.2       9 UNK        -0.5390 
     59 N          33.6565   31.9697    4.6640 N.am      10 UNK        -0.4215 
     60 CA         34.5657   31.6811    5.7870 C.3       10 UNK         0.0240 
     61 CB         35.7175   32.7021    5.8763 C.3       10 UNK        -0.1982 
     62 C          35.0918   30.2340    5.8130 C.2       10 UNK         0.4970 
     63 O          35.0455   29.6018    6.8686 O.2       10 UNK        -0.4916 
     64 N          35.5430   29.7343    4.6568 N.am      11 UNK        -0.4279 
     65 CA         35.9058   28.3331    4.3785 C.3       11 UNK         0.1003 
     66 C          37.1785   27.8195    5.1179 C.2       11 UNK         0.5709 
     67 N          38.0193   28.6889    5.6660 N.am      11 UNK        -0.7358 
     68 O          37.4317   26.6178    5.1673 O.2       11 UNK        -0.4999 
     69 C69        34.6944   27.3621    4.5110 C.3       12 UNK        -0.0954 
     70 S70        33.2427   27.9257    3.5573 S.3       12 UNK        -0.2268 
     71 C71        33.2438   26.7659    2.1493 C.3       12 UNK         0.0203 
     72 H72        27.0443   20.3872    4.0762 H         1 UNK         0.0888 
     73 H73        28.7713   20.7087    3.9609 H         1 UNK         0.0888 
     74 H74        27.6223   22.0525    4.1114 H         1 UNK         0.0888 
     75 H75        29.4005   22.2048    2.0116 H         1 UNK         0.3017 
     76 H76        28.4724   20.9522   -0.3999 H         1 UNK         0.0873 
     77 H77        30.3079   22.1632   -1.4970 H         1 UNK         0.0745 
     78 H78        30.5413   23.1729   -0.0950 H         1 UNK         0.0745 
     79 H79        33.5651   21.2842    1.2153 H         1 UNK         0.0705 
     80 H80        33.2783   22.3554   -0.1341 H         1 UNK         0.0705 
     81 H81        33.5943   24.5388    0.6869 H         1 UNK         0.1334 
     82 H82        31.6129   25.8878    4.2456 H         1 UNK         0.1417 
     83 H83        31.3024   21.7936    3.0462 H         1 UNK         0.1562 
     84 H84        31.0068   23.5557    5.8532 H         1 UNK         0.0748 
     85 H85        29.9896   22.5474    4.8658 H         1 UNK         0.0748 
     86 H86        28.8757   24.2824    2.7683 H         1 UNK         0.0940 
     87 H87        27.3289   24.7360    3.4110 H         1 UNK         0.0940 
     88 H88        29.5930   26.7763    3.3428 H         1 UNK         0.0703 
     89 H89        28.1624   25.8844    0.9415 H         1 UNK         0.3081 
     90 H90        29.6755   28.4005   -1.0652 H         1 UNK         0.0719 
     91 H91        30.2974   25.4021   -0.9385 H         1 UNK         0.0809 
     92 H92        30.4741   26.4250   -2.3633 H         1 UNK         0.0809 
     93 H93        31.4768   26.7015   -0.9478 H         1 UNK         0.0809 
     94 H94        27.9853   26.1543   -1.6618 H         1 UNK         0.2990 
     95 H95        24.8889   27.8011   -1.0402 H         1 UNK         0.0690 
     96 H96        24.5022   27.5421   -3.4648 H         1 UNK         0.0788 
     97 H97        26.2314   27.3424   -3.7545 H         1 UNK         0.0788 
     98 H98        25.6012   28.8805   -3.1811 H         1 UNK         0.0788 
     99 H99        25.2682   25.4249   -2.4155 H         1 UNK         0.2993 
    100 H100       24.5261   23.3896    0.0648 H         1 UNK         0.0949 
    101 H101       24.6879   22.1458   -2.0778 H         1 UNK         0.0767 
    102 H102       24.0112   23.7350   -2.3567 H         1 UNK         0.0767 
    103 H103       25.6946   23.4033   -2.7790 H         1 UNK         0.0767 
    104 H104       26.2874   22.0700    0.4619 H         1 UNK         0.3013 
    105 H105       26.4012   27.1334    1.8278 H         1 UNK         0.3121 
    106 H106       25.1065   28.3969    4.0297 H         1 UNK         0.0774 
    107 H107       24.5014   28.6720    1.0416 H         1 UNK         0.0815 
    108 H108       23.4031   29.0219    2.3647 H         1 UNK         0.0815 
    109 H109       23.9137   27.3657    2.0722 H         1 UNK         0.0815 
    110 H110       27.0282   29.7436    1.3200 H         1 UNK         0.2987 
    111 H111       26.5622   32.5120    1.9498 H         1 UNK         0.0949 
    112 H112       28.7838   31.1283    0.3379 H         1 UNK         0.0806 
    113 H113       27.2621   31.7322   -0.3148 H         1 UNK         0.0806 
    114 H114       28.4514   32.8557    0.3217 H         1 UNK         0.0806 
    115 H115       28.1223   34.0396    2.7322 H         1 UNK         0.3010 
    116 H116       29.6831   33.1815    5.0393 H         1 UNK         0.0829 
    117 H117       28.3048   35.2488    5.1043 H         1 UNK         0.0813 
    118 H118       30.0001   35.6242    5.3539 H         1 UNK         0.0813 
    119 H119       29.2561   35.9493    3.7943 H         1 UNK         0.0813 
    120 H120       30.8260   31.8065    3.1579 H         1 UNK         0.3038 
    121 H121       33.0211   33.1796    1.7917 H         1 UNK         0.0769 
    122 H122       32.2167   30.2266    1.9673 H         1 UNK         0.0811 
    123 H123       33.4626   30.8703    0.9064 H         1 UNK         0.0811 
    124 H124       31.7882   31.3472    0.6808 H         1 UNK         0.0811 
    125 H125       32.6863   32.0782    4.9229 H         1 UNK         0.3204 
    126 H126       33.9591   31.8036    6.6859 H         1 UNK         0.0748 
    127 H127       36.3111   32.5385    6.7767 H         1 UNK         0.0771 
    128 H128       36.3966   32.6337    5.0262 H         1 UNK         0.0771 
    129 H129       35.3380   33.7231    5.9198 H         1 UNK         0.0771 
    130 H130       35.5432   30.3621    3.8569 H         1 UNK         0.2980 
    131 H131       36.1938   28.3283    3.3269 H         1 UNK         0.0545 
    132 H132       37.8273   29.6768    5.6249 H         1 UNK         0.3459 
    133 H133       38.8463   28.3511    6.1323 H         1 UNK         0.3459 
    134 H134       34.9653   26.3577    4.1808 H         1 UNK         0.0616 
    135 H135       34.3953   27.2640    5.5555 H         1 UNK         0.0616 
    136 H136       32.6498   27.2069    1.3490 H         1 UNK         0.0634 
    137 H137       34.2624   26.6872    1.7661 H         1 UNK         0.0634 
@<TRIPOS>BOND
     1    1    2 1    
     2    1   72 1    
     3    1   73 1    
     4    1   74 1    
     5    2    3 2    
     6    2    4 am   BACKBONE|DICT|INTERRES
     7    4    5 1    
     8    4   75 1    
     9    5    6 1    
    10    5   35 1    
    11    5   76 1    
    12    6    7 1    
    13    6   77 1    
    14    6   78 1    
    15    7    8 1    
    16    8    9 1    
    17    8   79 1    
    18    8   80 1    
    19    9   10 ar   
    20    9   14 ar   
    21   10   11 ar   
    22   10   81 1    
    23   11   12 ar   
    24   11   71 1    
    25   12   13 ar   
    26   12   82 1    
    27   13   14 ar   
    28   13   15 1    
    29   14   83 1    
    30   15   16 1    
    31   15   84 1    
    32   15   85 1    
    33   16   17 1    
    34   17   18 1    
    35   17   86 1    
    36   17   87 1    
    37   18   19 1    
    38   18   37 1    
    39   18   88 1    
    40   19   20 am   BACKBONE|DICT|INTERRES
    41   19   89 1    
    42   20   21 2    
    43   20   22 1    
    44   22   23 1    
    45   22   24 1    
    46   22   90 1    
    47   23   91 1    
    48   23   92 1    
    49   23   93 1    
    50   24   25 am   BACKBONE|DICT|INTERRES
    51   24   94 1    
    52   25   26 2    
    53   25   27 1    
    54   27   28 1    
    55   27   29 1    
    56   27   95 1    
    57   28   96 1    
    58   28   97 1    
    59   28   98 1    
    60   29   30 am   BACKBONE|DICT|INTERRES
    61   29   99 1    
    62   30   31 2    
    63   30   32 1    
    64   32   33 1    
    65   32   34 1    
    66   32  100 1    
    67   33  101 1    
    68   33  102 1    
    69   33  103 1    
    70   34   35 am   BACKBONE|DICT|INTERRES
    71   34  104 1    
    72   35   36 2    
    73   37   38 2    
    74   37   39 am   BACKBONE|DICT|INTERRES
    75   39   40 1    
    76   39  105 1    
    77   40   41 1    
    78   40   42 1    
    79   40  106 1    
    80   41  107 1    
    81   41  108 1    
    82   41  109 1    
    83   42   43 2    
    84   42   44 am   BACKBONE|DICT|INTERRES
    85   44   45 1    
    86   44  110 1    
    87   45   46 1    
    88   45   47 1    
    89   45  111 1    
    90   46  112 1    
    91   46  113 1    
    92   46  114 1    
    93   47   48 2    
    94   47   49 am   BACKBONE|DICT|INTERRES
    95   49   50 1    
    96   49  115 1    
    97   50   51 1    
    98   50   52 1    
    99   50  116 1    
   100   51  117 1    
   101   51  118 1    
   102   51  119 1    
   103   52   53 2    
   104   52   54 am   BACKBONE|DICT|INTERRES
   105   54   55 1    
   106   54  120 1    
   107   55   56 1    
   108   55   57 1    
   109   55  121 1    
   110   56  122 1    
   111   56  123 1    
   112   56  124 1    
   113   57   58 2    
   114   57   59 am   BACKBONE|DICT|INTERRES
   115   59   60 1    
   116   59  125 1    
   117   60   61 1    
   118   60   62 1    
   119   60  126 1    
   120   61  127 1    
   121   61  128 1    
   122   61  129 1    
   123   62   63 2    
   124   62   64 am   BACKBONE|DICT|INTERRES
   125   64   65 1    
   126   64  130 1    
   127   65   66 1    
   128   65   69 1    
   129   65  131 1    
   130   66   67 am   BACKBONE|DICT|INTERRES
   131   66   68 2    
   132   67  132 1    
   133   67  133 1    
   134   69   70 1    
   135   69  134 1    
   136   69  135 1    
   137   70   71 1    
   138   71  136 1    
   139   71  137 1    
@<TRIPOS>SUBSTRUCTURE
     1 UNK         1 GROUP             0       ****    0 ROOT    
