@<TRIPOS>MOLECULE
3R136
137   139    1
SMALL
USER_CHARGES


@<TRIPOS>ATOM
      1 CA         29.8336   23.4359   -4.2163 C.3       0 UNK        -0.1979 
      2 C          29.5298   23.5907   -2.7346 C.2       0 UNK         0.4864 
      3 O          29.0407   24.6425   -2.3194 O.2       0 UNK        -0.5359 
      4 N          29.7992   22.5471   -1.9358 N.am      1 UNK        -0.4318 
      5 CA         29.6281   22.5108   -0.4751 C.3       1 UNK         0.0824 
      6 C6         30.0645   21.1542    0.1242 C.3       12 UNK        -0.0944 
      7 S7         31.8795   20.9749    0.0777 S.3       12 UNK        -0.2672 
      8 C8         32.2899   20.7121    1.8347 C.3       12 UNK         0.0333 
      9 C9         32.0809   21.9544    2.6944 C.ar      12 UNK        -0.0807 
     10 C10        33.0747   22.9347    2.7755 C.ar      12 UNK        -0.0894 
     11 C11        32.9226   24.0347    3.6273 C.ar      12 UNK        -0.0804 
     12 C12        31.7484   24.1672    4.3779 C.ar      12 UNK        -0.0824 
     13 C13        30.7413   23.2000    4.2988 C.ar      12 UNK        -0.0762 
     14 C14        30.9222   22.0917    3.4643 C.ar      12 UNK        -0.0782 
     15 C15        29.4848   23.3133    5.1562 C.3       12 UNK         0.0230 
     16 S16        27.9694   23.2347    4.1470 S.3       12 UNK        -0.2608 
     17 C17        27.1351   24.8221    4.4746 C.3       12 UNK        -0.0989 
     18 CA         27.9202   26.0971    4.0693 C.3       5 UNK         0.0716 
     19 N          28.3944   26.0782    2.6764 N.am      5 UNK        -0.4135 
     20 C          29.2150   27.0085    2.1641 C.2       4 UNK         0.5031 
     21 O          29.6552   27.9511    2.8193 O.2       4 UNK        -0.5229 
     22 CA         29.5556   26.9342    0.6669 C.3       4 UNK         0.0329 
     23 CB         30.7768   26.0300    0.4421 C.3       4 UNK        -0.2001 
     24 N          28.4417   26.5136   -0.1909 N.am      4 UNK        -0.4303 
     25 C          27.2423   27.1141   -0.2594 C.2       3 UNK         0.5044 
     26 O          26.9020   28.0510    0.4624 O.2       3 UNK        -0.5152 
     27 CA         26.2473   26.5722   -1.2965 C.3       3 UNK         0.0319 
     28 CB         26.5729   27.1109   -2.6990 C.3       3 UNK        -0.2001 
     29 N          26.2580   25.1107   -1.3141 N.am      3 UNK        -0.4354 
     30 C          25.4871   24.3444   -0.5289 C.2       2 UNK         0.4964 
     31 O          24.5876   24.7839    0.1883 O.2       2 UNK        -0.5047 
     32 CA         25.7760   22.8302   -0.5182 C.3       2 UNK         0.0288 
     33 CB         24.8929   22.1060   -1.5474 C.3       2 UNK        -0.2113 
     34 N          27.1813   22.4849   -0.7590 N.am      2 UNK        -0.4145 
     35 C          28.2119   22.8966   -0.0045 C.2       1 UNK         0.5006 
     36 O          28.0866   23.6114    0.9889 O.2       1 UNK        -0.5103 
     37 C          27.0824   27.3506    4.4267 C.2       5 UNK         0.5055 
     38 O          26.9690   27.6669    5.6121 O.2       5 UNK        -0.5220 
     39 N          26.5085   28.0319    3.4235 N.am      6 UNK        -0.4450 
     40 CA         25.7164   29.2528    3.5792 C.3       6 UNK         0.0367 
     41 CB         24.4407   29.1182    2.7282 C.3       6 UNK        -0.1929 
     42 C          26.5014   30.5228    3.1950 C.2       6 UNK         0.5070 
     43 O          25.9203   31.6090    3.2345 O.2       6 UNK        -0.5237 
     44 N          27.7820   30.3943    2.8158 N.am      7 UNK        -0.4739 
     45 CA         28.6480   31.5191    2.4511 C.3       7 UNK         0.0276 
     46 CB         29.8628   30.9886    1.6703 C.3       7 UNK        -0.1927 
     47 C          29.1099   32.3183    3.6827 C.2       7 UNK         0.5013 
     48 O          29.0944   31.8022    4.8032 O.2       7 UNK        -0.5193 
     49 N          29.5346   33.5655    3.4416 N.am      8 UNK        -0.4253 
     50 CA         30.1463   34.4325    4.4531 C.3       8 UNK         0.0242 
     51 CB         29.9498   35.9034    4.0497 C.3       8 UNK        -0.2000 
     52 C          31.6412   34.1277    4.6591 C.2       8 UNK         0.4948 
     53 O          32.1432   34.3050    5.7700 O.2       8 UNK        -0.5275 
     54 N          32.3220   33.6934    3.5915 N.am      9 UNK        -0.4246 
     55 CA         33.7369   33.3377    3.5411 C.3       9 UNK         0.0261 
     56 CB         34.6026   34.6137    3.5963 C.3       9 UNK        -0.1959 
     57 C          33.9802   32.5732    2.2258 C.2       9 UNK         0.5033 
     58 O          33.2110   32.7705    1.2829 O.2       9 UNK        -0.5390 
     59 N          35.0324   31.7483    2.1053 N.am      10 UNK        -0.4215 
     60 CA         35.9467   31.3011    3.1645 C.3       10 UNK         0.0240 
     61 CB         37.2269   30.7393    2.5255 C.3       10 UNK        -0.1982 
     62 C          35.3054   30.2513    4.0882 C.2       10 UNK         0.4970 
     63 O          35.6291   30.2174    5.2754 O.2       10 UNK        -0.4916 
     64 N          34.3917   29.4447    3.5355 N.am      11 UNK        -0.4279 
     65 CA         33.5057   28.5441    4.2839 C.3       11 UNK         0.1003 
     66 C          32.4477   29.3249    5.1124 C.2       11 UNK         0.5709 
     67 N          31.9258   28.7248    6.1739 N.am      11 UNK        -0.7358 
     68 O          32.0889   30.4562    4.7948 O.2       11 UNK        -0.4999 
     69 C69        32.8243   27.5213    3.3407 C.3       12 UNK        -0.0954 
     70 S70        34.0138   26.3772    2.5679 S.3       12 UNK        -0.2268 
     71 C71        34.0640   25.0311    3.7908 C.3       12 UNK         0.0203 
     72 H72        30.2524   22.4567   -4.4474 H         1 UNK         0.0888 
     73 H73        28.9226   23.5633   -4.8003 H         1 UNK         0.0888 
     74 H74        30.5493   24.1948   -4.5312 H         1 UNK         0.0888 
     75 H75        30.2111   21.7171   -2.3385 H         1 UNK         0.3017 
     76 H76        30.2931   23.2734   -0.0739 H         1 UNK         0.0873 
     77 H77        29.7222   21.0505    1.1542 H         1 UNK         0.0745 
     78 H78        29.6116   20.3245   -0.4215 H         1 UNK         0.0745 
     79 H79        31.7037   19.8762    2.2199 H         1 UNK         0.0705 
     80 H80        33.3331   20.4000    1.9025 H         1 UNK         0.0705 
     81 H81        33.9837   22.8234    2.2000 H         1 UNK         0.1334 
     82 H82        31.6316   25.0062    5.0493 H         1 UNK         0.1417 
     83 H83        30.1576   21.3280    3.4279 H         1 UNK         0.1562 
     84 H84        29.4971   24.2225    5.7576 H         1 UNK         0.0748 
     85 H85        29.4712   22.4848    5.8656 H         1 UNK         0.0748 
     86 H86        26.8898   24.8499    5.5385 H         1 UNK         0.0940 
     87 H87        26.1782   24.7925    3.9492 H         1 UNK         0.0940 
     88 H88        28.8141   26.1523    4.6928 H         1 UNK         0.0703 
     89 H89        28.1156   25.2875    2.1006 H         1 UNK         0.3081 
     90 H90        29.8231   27.9406    0.3400 H         1 UNK         0.0719 
     91 H91        31.6876   26.5421    0.7477 H         1 UNK         0.0809 
     92 H92        30.7174   25.1167    1.0343 H         1 UNK         0.0809 
     93 H93        30.9027   25.7584   -0.6057 H         1 UNK         0.0809 
     94 H94        28.6382   25.7659   -0.8516 H         1 UNK         0.2990 
     95 H95        25.2514   26.9300   -1.0259 H         1 UNK         0.0690 
     96 H96        26.5532   28.2015   -2.7102 H         1 UNK         0.0788 
     97 H97        25.8447   26.7661   -3.4332 H         1 UNK         0.0788 
     98 H98        27.5619   26.7997   -3.0374 H         1 UNK         0.0788 
     99 H99        27.0104   24.6756   -1.8361 H         1 UNK         0.2993 
    100 H100       25.5176   22.4624    0.4773 H         1 UNK         0.0949 
    101 H101       25.0121   21.0243   -1.4826 H         1 UNK         0.0767 
    102 H102       23.8374   22.3242   -1.3779 H         1 UNK         0.0767 
    103 H103       25.1291   22.4112   -2.5677 H         1 UNK         0.0767 
    104 H104       27.3796   21.9186   -1.5710 H         1 UNK         0.3013 
    105 H105       26.6863   27.7496    2.4640 H         1 UNK         0.3121 
    106 H106       25.4116   29.3737    4.6206 H         1 UNK         0.0774 
    107 H107       23.7859   29.9801    2.8627 H         1 UNK         0.0815 
    108 H108       24.6706   29.0473    1.6645 H         1 UNK         0.0815 
    109 H109       23.8689   28.2331    3.0074 H         1 UNK         0.0815 
    110 H110       28.2250   29.4832    2.8630 H         1 UNK         0.2987 
    111 H111       28.0808   32.1860    1.7977 H         1 UNK         0.0949 
    112 H112       30.5172   30.3885    2.3043 H         1 UNK         0.0806 
    113 H113       29.5549   30.3738    0.8247 H         1 UNK         0.0806 
    114 H114       30.4642   31.8065    1.2722 H         1 UNK         0.0806 
    115 H115       29.4921   33.9246    2.4984 H         1 UNK         0.3010 
    116 H116       29.6414   34.2747    5.4089 H         1 UNK         0.0829 
    117 H117       30.3766   36.5720    4.7988 H         1 UNK         0.0813 
    118 H118       30.4312   36.1321    3.0980 H         1 UNK         0.0813 
    119 H119       28.8922   36.1526    3.9607 H         1 UNK         0.0813 
    120 H120       31.8421   33.5449    2.7126 H         1 UNK         0.3038 
    121 H121       33.9530   32.6980    4.3970 H         1 UNK         0.0769 
    122 H122       34.3461   35.3047    2.7923 H         1 UNK         0.0811 
    123 H123       35.6636   34.3845    3.4973 H         1 UNK         0.0811 
    124 H124       34.4776   35.1419    4.5414 H         1 UNK         0.0811 
    125 H125       35.1814   31.3262    1.2003 H         1 UNK         0.3204 
    126 H126       36.2336   32.1548    3.7797 H         1 UNK         0.0748 
    127 H127       37.9361   30.4187    3.2902 H         1 UNK         0.0771 
    128 H128       37.0204   29.8761    1.8912 H         1 UNK         0.0771 
    129 H129       37.7291   31.4914    1.9164 H         1 UNK         0.0771 
    130 H130       34.1798   29.5524    2.5559 H         1 UNK         0.2980 
    131 H131       34.1249   27.9940    4.9952 H         1 UNK         0.0545 
    132 H132       31.2289   29.2168    6.7102 H         1 UNK         0.3459 
    133 H133       32.2143   27.8009    6.4521 H         1 UNK         0.3459 
    134 H134       32.0665   26.9412    3.8668 H         1 UNK         0.0616 
    135 H135       32.2965   28.0477    2.5443 H         1 UNK         0.0616 
    136 H136       35.0167   24.5099    3.6856 H         1 UNK         0.0634 
    137 H137       34.0645   25.4491    4.7985 H         1 UNK         0.0634 
@<TRIPOS>BOND
     1    1    2 1    
     2    1   72 1    
     3    1   73 1    
     4    1   74 1    
     5    2    3 2    
     6    2    4 am   BACKBONE|DICT|INTERRES
     7    4    5 1    
     8    4   75 1    
     9    5    6 1    
    10    5   35 1    
    11    5   76 1    
    12    6    7 1    
    13    6   77 1    
    14    6   78 1    
    15    7    8 1    
    16    8    9 1    
    17    8   79 1    
    18    8   80 1    
    19    9   10 ar   
    20    9   14 ar   
    21   10   11 ar   
    22   10   81 1    
    23   11   12 ar   
    24   11   71 1    
    25   12   13 ar   
    26   12   82 1    
    27   13   14 ar   
    28   13   15 1    
    29   14   83 1    
    30   15   16 1    
    31   15   84 1    
    32   15   85 1    
    33   16   17 1    
    34   17   18 1    
    35   17   86 1    
    36   17   87 1    
    37   18   19 1    
    38   18   37 1    
    39   18   88 1    
    40   19   20 am   BACKBONE|DICT|INTERRES
    41   19   89 1    
    42   20   21 2    
    43   20   22 1    
    44   22   23 1    
    45   22   24 1    
    46   22   90 1    
    47   23   91 1    
    48   23   92 1    
    49   23   93 1    
    50   24   25 am   BACKBONE|DICT|INTERRES
    51   24   94 1    
    52   25   26 2    
    53   25   27 1    
    54   27   28 1    
    55   27   29 1    
    56   27   95 1    
    57   28   96 1    
    58   28   97 1    
    59   28   98 1    
    60   29   30 am   BACKBONE|DICT|INTERRES
    61   29   99 1    
    62   30   31 2    
    63   30   32 1    
    64   32   33 1    
    65   32   34 1    
    66   32  100 1    
    67   33  101 1    
    68   33  102 1    
    69   33  103 1    
    70   34   35 am   BACKBONE|DICT|INTERRES
    71   34  104 1    
    72   35   36 2    
    73   37   38 2    
    74   37   39 am   BACKBONE|DICT|INTERRES
    75   39   40 1    
    76   39  105 1    
    77   40   41 1    
    78   40   42 1    
    79   40  106 1    
    80   41  107 1    
    81   41  108 1    
    82   41  109 1    
    83   42   43 2    
    84   42   44 am   BACKBONE|DICT|INTERRES
    85   44   45 1    
    86   44  110 1    
    87   45   46 1    
    88   45   47 1    
    89   45  111 1    
    90   46  112 1    
    91   46  113 1    
    92   46  114 1    
    93   47   48 2    
    94   47   49 am   BACKBONE|DICT|INTERRES
    95   49   50 1    
    96   49  115 1    
    97   50   51 1    
    98   50   52 1    
    99   50  116 1    
   100   51  117 1    
   101   51  118 1    
   102   51  119 1    
   103   52   53 2    
   104   52   54 am   BACKBONE|DICT|INTERRES
   105   54   55 1    
   106   54  120 1    
   107   55   56 1    
   108   55   57 1    
   109   55  121 1    
   110   56  122 1    
   111   56  123 1    
   112   56  124 1    
   113   57   58 2    
   114   57   59 am   BACKBONE|DICT|INTERRES
   115   59   60 1    
   116   59  125 1    
   117   60   61 1    
   118   60   62 1    
   119   60  126 1    
   120   61  127 1    
   121   61  128 1    
   122   61  129 1    
   123   62   63 2    
   124   62   64 am   BACKBONE|DICT|INTERRES
   125   64   65 1    
   126   64  130 1    
   127   65   66 1    
   128   65   69 1    
   129   65  131 1    
   130   66   67 am   BACKBONE|DICT|INTERRES
   131   66   68 2    
   132   67  132 1    
   133   67  133 1    
   134   69   70 1    
   135   69  134 1    
   136   69  135 1    
   137   70   71 1    
   138   71  136 1    
   139   71  137 1    
@<TRIPOS>SUBSTRUCTURE
     1 UNK         1 GROUP             0       ****    0 ROOT    
