@<TRIPOS>MOLECULE
3R136
137   139    1
SMALL
USER_CHARGES


@<TRIPOS>ATOM
      1 CA         29.4101   19.3701   -1.7619 C.3       0 UNK        -0.1979 
      2 C          28.9851   20.8256   -1.6355 C.2       0 UNK         0.4864 
      3 O          28.6475   21.4519   -2.6408 O.2       0 UNK        -0.5359 
      4 N          29.0047   21.3658   -0.4092 N.am      1 UNK        -0.4318 
      5 CA         28.6293   22.7488   -0.0866 C.3       1 UNK         0.0824 
      6 C6         29.0046   23.1221    1.3677 C.3       12 UNK        -0.0944 
      7 S7         30.7933   23.0014    1.6821 S.3       12 UNK        -0.2672 
      8 C8         30.8660   23.5188    3.4248 C.3       12 UNK         0.0333 
      9 C9         30.8156   25.0330    3.5646 C.ar      12 UNK        -0.0807 
     10 C10        31.9900   25.7795    3.4328 C.ar      12 UNK        -0.0894 
     11 C11        31.9678   27.1683    3.5799 C.ar      12 UNK        -0.0804 
     12 C12        30.7588   27.8119    3.8529 C.ar      12 UNK        -0.0824 
     13 C13        29.5756   27.0782    3.9855 C.ar      12 UNK        -0.0762 
     14 C14        29.6107   25.6865    3.8470 C.ar      12 UNK        -0.0782 
     15 C15        28.2670   27.7983    4.2923 C.3       12 UNK         0.0230 
     16 S16        27.0427   27.6731    2.9443 S.3       12 UNK        -0.2608 
     17 C17        27.9907   28.2522    1.4964 C.3       12 UNK        -0.0989 
     18 CA         28.0662   27.1437    0.4125 C.3       5 UNK         0.0716 
     19 N          26.8087   26.9087   -0.3079 N.am      5 UNK        -0.4135 
     20 C          26.0544   27.7926   -0.9782 C.2       4 UNK         0.5031 
     21 O          26.2601   29.0062   -1.0272 O.2       4 UNK        -0.5229 
     22 CA         24.8470   27.2191   -1.7373 C.3       4 UNK         0.0329 
     23 CB         25.2830   26.6583   -3.1013 C.3       4 UNK        -0.2001 
     24 N          24.1366   26.1793   -0.9910 N.am      4 UNK        -0.4303 
     25 C          23.3506   26.3979    0.0745 C.2       3 UNK         0.5044 
     26 O          23.1558   27.5124    0.5608 O.2       3 UNK        -0.5152 
     27 CA         22.6242   25.1810    0.6830 C.3       3 UNK         0.0319 
     28 CB         21.1232   25.2306    0.3507 C.3       3 UNK        -0.2001 
     29 N          23.1709   23.9062    0.2101 N.am      3 UNK        -0.4354 
     30 C          24.2387   23.2991    0.7422 C.2       2 UNK         0.4964 
     31 O          24.7814   23.6684    1.7859 O.2       2 UNK        -0.5047 
     32 CA         24.8134   22.0871   -0.0245 C.3       2 UNK         0.0288 
     33 CB         24.3415   21.9895   -1.4945 C.3       2 UNK        -0.2113 
     34 N          26.2802   22.0465    0.0322 N.am      2 UNK        -0.4145 
     35 C          27.1309   23.0242   -0.3239 C.2       1 UNK         0.5006 
     36 O          26.7842   24.1068   -0.8033 O.2       1 UNK        -0.5103 
     37 C          29.2568   27.3328   -0.5502 C.2       5 UNK         0.5055 
     38 O          29.1113   27.8924   -1.6391 O.2       5 UNK        -0.5220 
     39 N          30.4296   26.8358   -0.1300 N.am      6 UNK        -0.4450 
     40 CA         31.6708   26.8825   -0.9115 C.3       6 UNK         0.0367 
     41 CB         32.6687   25.8639   -0.3380 C.3       6 UNK        -0.1929 
     42 C          32.3062   28.2836   -0.9653 C.2       6 UNK         0.5070 
     43 O          32.9925   28.6001   -1.9373 O.2       6 UNK        -0.5237 
     44 N          32.0663   29.0892    0.0730 N.am      7 UNK        -0.4739 
     45 CA         32.5113   30.4690    0.2477 C.3       7 UNK         0.0276 
     46 CB         34.0338   30.5249    0.5107 C.3       7 UNK        -0.1927 
     47 C          31.6870   31.0691    1.3983 C.2       7 UNK         0.5013 
     48 O          30.6780   30.4783    1.7935 O.2       7 UNK        -0.5193 
     49 N          32.1275   32.2111    1.9406 N.am      8 UNK        -0.4253 
     50 CA         31.5835   32.7871    3.1733 C.3       8 UNK         0.0242 
     51 CB         32.1749   34.1911    3.3799 C.3       8 UNK        -0.2000 
     52 C          31.8999   31.8910    4.3831 C.2       8 UNK         0.4948 
     53 O          32.9750   31.2915    4.4271 O.2       8 UNK        -0.5275 
     54 N          30.9897   31.8553    5.3659 N.am      9 UNK        -0.4246 
     55 CA         31.0538   31.0072    6.5679 C.3       9 UNK         0.0261 
     56 CB         29.7384   31.1566    7.3509 C.3       9 UNK        -0.1959 
     57 C          32.2693   31.2362    7.4934 C.2       9 UNK         0.5033 
     58 O          32.4929   30.4337    8.4002 O.2       9 UNK        -0.5390 
     59 N          33.0409   32.3023    7.2457 N.am      10 UNK        -0.4215 
     60 CA         34.3322   32.5900    7.8719 C.3       10 UNK         0.0240 
     61 CB         34.6743   34.0703    7.6275 C.3       10 UNK        -0.1982 
     62 C          35.4821   31.6781    7.3886 C.2       10 UNK         0.4970 
     63 O          36.5755   31.7744    7.9486 O.2       10 UNK        -0.4916 
     64 N          35.2439   30.8428    6.3646 N.am      11 UNK        -0.4279 
     65 CA         36.1880   29.8601    5.8075 C.3       11 UNK         0.1003 
     66 C          36.8241   28.8901    6.8487 C.2       11 UNK         0.5709 
     67 N          38.0299   28.4050    6.5813 N.am      11 UNK        -0.7358 
     68 O          36.2312   28.5476    7.8705 O.2       11 UNK        -0.4999 
     69 C69        35.5581   29.0872    4.6151 C.3       12 UNK        -0.0954 
     70 S70        34.0975   28.0829    5.0615 S.3       12 UNK        -0.2268 
     71 C71        33.2504   27.9730    3.4588 C.3       12 UNK         0.0203 
     72 H72        29.6889   18.9411   -0.7996 H         1 UNK         0.0888 
     73 H73        28.5952   18.7760   -2.1746 H         1 UNK         0.0888 
     74 H74        30.2662   19.2862   -2.4307 H         1 UNK         0.0888 
     75 H75        29.3280   20.8109    0.3706 H         1 UNK         0.3017 
     76 H76        29.1834   23.4057   -0.7612 H         1 UNK         0.0873 
     77 H77        28.4840   22.4760    2.0776 H         1 UNK         0.0745 
     78 H78        28.6894   24.1385    1.5983 H         1 UNK         0.0745 
     79 H79        30.0570   23.0498    3.9871 H         1 UNK         0.0705 
     80 H80        31.7931   23.1442    3.8615 H         1 UNK         0.0705 
     81 H81        32.9252   25.2771    3.2257 H         1 UNK         0.1334 
     82 H82        30.7433   28.8877    3.9655 H         1 UNK         0.1417 
     83 H83        28.6981   25.1161    3.9569 H         1 UNK         0.1562 
     84 H84        28.4478   28.8545    4.4998 H         1 UNK         0.0748 
     85 H85        27.8340   27.3800    5.2019 H         1 UNK         0.0748 
     86 H86        28.9881   28.5438    1.8203 H         1 UNK         0.0940 
     87 H87        27.5437   29.1708    1.1177 H         1 UNK         0.0940 
     88 H88        28.2575   26.2032    0.9261 H         1 UNK         0.0703 
     89 H89        26.5703   25.9254   -0.4138 H         1 UNK         0.3081 
     90 H90        24.1498   28.0402   -1.9184 H         1 UNK         0.0719 
     91 H91        25.8067   27.4172   -3.6844 H         1 UNK         0.0809 
     92 H92        25.9584   25.8083   -2.9931 H         1 UNK         0.0809 
     93 H93        24.4250   26.3335   -3.6902 H         1 UNK         0.0809 
     94 H94        24.2682   25.2286   -1.3021 H         1 UNK         0.2990 
     95 H95        22.7331   25.2429    1.7680 H         1 UNK         0.0690 
     96 H96        20.5867   24.4029    0.8150 H         1 UNK         0.0788 
     97 H97        20.9444   25.1871   -0.7244 H         1 UNK         0.0788 
     98 H98        20.6720   26.1533    0.7187 H         1 UNK         0.0788 
     99 H99        22.7667   23.5216   -0.6323 H         1 UNK         0.2993 
    100 H100       24.4577   21.2003    0.5024 H         1 UNK         0.0949 
    101 H101       24.6014   22.8801   -2.0683 H         1 UNK         0.0767 
    102 H102       24.8012   21.1362   -1.9938 H         1 UNK         0.0767 
    103 H103       23.2625   21.8464   -1.5628 H         1 UNK         0.0767 
    104 H104       26.6766   21.2110    0.4382 H         1 UNK         0.3013 
    105 H105       30.4841   26.3917    0.7765 H         1 UNK         0.3121 
    106 H106       31.4400   26.5880   -1.9377 H         1 UNK         0.0774 
    107 H107       32.9431   26.1005    0.6900 H         1 UNK         0.0815 
    108 H108       32.2601   24.8535   -0.3544 H         1 UNK         0.0815 
    109 H109       33.5888   25.8488   -0.9238 H         1 UNK         0.0815 
    110 H110       31.4298   28.7807    0.7980 H         1 UNK         0.2987 
    111 H111       32.2757   31.0288   -0.6596 H         1 UNK         0.0949 
    112 H112       34.5975   30.0304   -0.2800 H         1 UNK         0.0806 
    113 H113       34.3947   31.5527    0.5502 H         1 UNK         0.0806 
    114 H114       34.3014   30.0479    1.4532 H         1 UNK         0.0806 
    115 H115       32.9796   32.6204    1.5878 H         1 UNK         0.3010 
    116 H116       30.4998   32.8702    3.0647 H         1 UNK         0.0829 
    117 H117       33.2589   34.1594    3.4998 H         1 UNK         0.0813 
    118 H118       31.7620   34.6638    4.2721 H         1 UNK         0.0813 
    119 H119       31.9496   34.8446    2.5369 H         1 UNK         0.0813 
    120 H120       30.1506   32.4080    5.2604 H         1 UNK         0.3038 
    121 H121       31.1260   29.9730    6.2244 H         1 UNK         0.0769 
    122 H122       28.8783   30.8792    6.7411 H         1 UNK         0.0811 
    123 H123       29.5908   32.1798    7.6986 H         1 UNK         0.0811 
    124 H124       29.7285   30.5097    8.2294 H         1 UNK         0.0811 
    125 H125       32.7784   32.8904    6.4688 H         1 UNK         0.3204 
    126 H126       34.2310   32.4350    8.9481 H         1 UNK         0.0748 
    127 H127       34.7920   34.2869    6.5648 H         1 UNK         0.0771 
    128 H128       33.8989   34.7278    8.0215 H         1 UNK         0.0771 
    129 H129       35.6078   34.3444    8.1211 H         1 UNK         0.0771 
    130 H130       34.3308   30.8563    5.9237 H         1 UNK         0.2980 
    131 H131       37.0088   30.4554    5.4036 H         1 UNK         0.0545 
    132 H132       38.4551   27.7656    7.2344 H         1 UNK         0.3459 
    133 H133       38.5241   28.6658    5.7424 H         1 UNK         0.3459 
    134 H134       36.2961   28.4323    4.1488 H         1 UNK         0.0616 
    135 H135       35.2670   29.7998    3.8418 H         1 UNK         0.0616 
    136 H136       33.0240   28.9772    3.1031 H         1 UNK         0.0634 
    137 H137       33.9156   27.5207    2.7218 H         1 UNK         0.0634 
@<TRIPOS>BOND
     1    1    2 1    
     2    1   72 1    
     3    1   73 1    
     4    1   74 1    
     5    2    3 2    
     6    2    4 am   BACKBONE|DICT|INTERRES
     7    4    5 1    
     8    4   75 1    
     9    5    6 1    
    10    5   35 1    
    11    5   76 1    
    12    6    7 1    
    13    6   77 1    
    14    6   78 1    
    15    7    8 1    
    16    8    9 1    
    17    8   79 1    
    18    8   80 1    
    19    9   10 ar   
    20    9   14 ar   
    21   10   11 ar   
    22   10   81 1    
    23   11   12 ar   
    24   11   71 1    
    25   12   13 ar   
    26   12   82 1    
    27   13   14 ar   
    28   13   15 1    
    29   14   83 1    
    30   15   16 1    
    31   15   84 1    
    32   15   85 1    
    33   16   17 1    
    34   17   18 1    
    35   17   86 1    
    36   17   87 1    
    37   18   19 1    
    38   18   37 1    
    39   18   88 1    
    40   19   20 am   BACKBONE|DICT|INTERRES
    41   19   89 1    
    42   20   21 2    
    43   20   22 1    
    44   22   23 1    
    45   22   24 1    
    46   22   90 1    
    47   23   91 1    
    48   23   92 1    
    49   23   93 1    
    50   24   25 am   BACKBONE|DICT|INTERRES
    51   24   94 1    
    52   25   26 2    
    53   25   27 1    
    54   27   28 1    
    55   27   29 1    
    56   27   95 1    
    57   28   96 1    
    58   28   97 1    
    59   28   98 1    
    60   29   30 am   BACKBONE|DICT|INTERRES
    61   29   99 1    
    62   30   31 2    
    63   30   32 1    
    64   32   33 1    
    65   32   34 1    
    66   32  100 1    
    67   33  101 1    
    68   33  102 1    
    69   33  103 1    
    70   34   35 am   BACKBONE|DICT|INTERRES
    71   34  104 1    
    72   35   36 2    
    73   37   38 2    
    74   37   39 am   BACKBONE|DICT|INTERRES
    75   39   40 1    
    76   39  105 1    
    77   40   41 1    
    78   40   42 1    
    79   40  106 1    
    80   41  107 1    
    81   41  108 1    
    82   41  109 1    
    83   42   43 2    
    84   42   44 am   BACKBONE|DICT|INTERRES
    85   44   45 1    
    86   44  110 1    
    87   45   46 1    
    88   45   47 1    
    89   45  111 1    
    90   46  112 1    
    91   46  113 1    
    92   46  114 1    
    93   47   48 2    
    94   47   49 am   BACKBONE|DICT|INTERRES
    95   49   50 1    
    96   49  115 1    
    97   50   51 1    
    98   50   52 1    
    99   50  116 1    
   100   51  117 1    
   101   51  118 1    
   102   51  119 1    
   103   52   53 2    
   104   52   54 am   BACKBONE|DICT|INTERRES
   105   54   55 1    
   106   54  120 1    
   107   55   56 1    
   108   55   57 1    
   109   55  121 1    
   110   56  122 1    
   111   56  123 1    
   112   56  124 1    
   113   57   58 2    
   114   57   59 am   BACKBONE|DICT|INTERRES
   115   59   60 1    
   116   59  125 1    
   117   60   61 1    
   118   60   62 1    
   119   60  126 1    
   120   61  127 1    
   121   61  128 1    
   122   61  129 1    
   123   62   63 2    
   124   62   64 am   BACKBONE|DICT|INTERRES
   125   64   65 1    
   126   64  130 1    
   127   65   66 1    
   128   65   69 1    
   129   65  131 1    
   130   66   67 am   BACKBONE|DICT|INTERRES
   131   66   68 2    
   132   67  132 1    
   133   67  133 1    
   134   69   70 1    
   135   69  134 1    
   136   69  135 1    
   137   70   71 1    
   138   71  136 1    
   139   71  137 1    
@<TRIPOS>SUBSTRUCTURE
     1 UNK         1 GROUP             0       ****    0 ROOT    
