@<TRIPOS>MOLECULE
3R136
137   139    1
SMALL
USER_CHARGES


@<TRIPOS>ATOM
      1 CA         27.0233   19.6252   -2.0934 C.3       0 UNK        -0.1979 
      2 C          27.6705   20.9963   -1.9698 C.2       0 UNK         0.4864 
      3 O          27.1752   21.9632   -2.5493 O.2       0 UNK        -0.5359 
      4 N          28.7671   21.0937   -1.2066 N.am      1 UNK        -0.4318 
      5 CA         29.5493   22.3178   -0.9875 C.3       1 UNK         0.0824 
      6 C6         31.0273   22.0179   -0.6001 C.3       12 UNK        -0.0944 
      7 S7         31.3283   20.6659    0.5984 S.3       12 UNK        -0.2672 
      8 C8         30.3782   21.1247    2.0920 C.3       12 UNK         0.0333 
      9 C9         30.8169   22.3863    2.8417 C.ar      12 UNK        -0.0807 
     10 C10        32.0435   23.0312    2.6227 C.ar      12 UNK        -0.0894 
     11 C11        32.3928   24.1712    3.3571 C.ar      12 UNK        -0.0804 
     12 C12        31.5103   24.6599    4.3255 C.ar      12 UNK        -0.0824 
     13 C13        30.2973   24.0151    4.5749 C.ar      12 UNK        -0.0762 
     14 C14        29.9554   22.8889    3.8225 C.ar      12 UNK        -0.0782 
     15 C15        29.3777   24.4941    5.6899 C.3       12 UNK         0.0230 
     16 S16        28.2082   25.7686    5.1282 S.3       12 UNK        -0.2608 
     17 C17        29.1770   27.2988    5.3753 C.3       12 UNK        -0.0989 
     18 CA         29.0170   28.3556    4.2551 C.3       5 UNK         0.0716 
     19 N          29.3285   27.8343    2.9201 N.am      5 UNK        -0.4135 
     20 C          30.4221   28.1660    2.2201 C.2       4 UNK         0.5031 
     21 O          31.3455   28.8284    2.6846 O.2       4 UNK        -0.5229 
     22 CA         30.5291   27.7140    0.7502 C.3       4 UNK         0.0329 
     23 CB         31.6435   26.6726    0.5747 C.3       4 UNK        -0.2001 
     24 N          29.2820   27.2027    0.1870 N.am      4 UNK        -0.4303 
     25 C          28.1951   27.9467   -0.0637 C.2       3 UNK         0.5044 
     26 O          28.1383   29.1582    0.1526 O.2       3 UNK        -0.5152 
     27 CA         26.9398   27.2123   -0.5775 C.3       3 UNK         0.0319 
     28 CB         26.8825   27.2648   -2.1113 C.3       3 UNK        -0.2001 
     29 N          26.8410   25.8153   -0.1335 N.am      3 UNK        -0.4354 
     30 C          26.8524   25.4176    1.1477 C.2       2 UNK         0.4964 
     31 O          26.8667   26.2045    2.0930 O.2       2 UNK        -0.5047 
     32 CA         26.9376   23.9063    1.4328 C.3       2 UNK         0.0288 
     33 CB         25.5315   23.3200    1.6310 C.3       2 UNK        -0.2113 
     34 N          27.6632   23.1039    0.4357 N.am      2 UNK        -0.4145 
     35 C          28.8929   23.3526   -0.0451 C.2       1 UNK         0.5006 
     36 O          29.5207   24.3741    0.2244 O.2       1 UNK        -0.5103 
     37 C          27.6426   29.0522    4.2956 C.2       5 UNK         0.5055 
     38 O          27.4761   29.9864    5.0818 O.2       5 UNK        -0.5220 
     39 N          26.6791   28.6099    3.4731 N.am      6 UNK        -0.4450 
     40 CA         25.3389   29.1943    3.3958 C.3       6 UNK         0.0367 
     41 CB         24.3824   28.2078    2.7072 C.3       6 UNK        -0.1929 
     42 C          25.3068   30.5597    2.6888 C.2       6 UNK         0.5070 
     43 O          24.4739   31.3913    3.0523 O.2       6 UNK        -0.5237 
     44 N          26.1874   30.7691    1.6998 N.am      7 UNK        -0.4739 
     45 CA         26.2909   32.0153    0.9382 C.3       7 UNK         0.0276 
     46 CB         26.0285   31.7433   -0.5538 C.3       7 UNK        -0.1927 
     47 C          27.6549   32.6837    1.1511 C.2       7 UNK         0.5013 
     48 O          27.6901   33.8709    1.4795 O.2       7 UNK        -0.5193 
     49 N          28.7493   31.9336    0.9563 N.am      8 UNK        -0.4253 
     50 CA         30.1154   32.4423    1.1232 C.3       8 UNK         0.0242 
     51 CB         31.0881   31.6025    0.2813 C.3       8 UNK        -0.2000 
     52 C          30.5457   32.4564    2.6003 C.2       8 UNK         0.4948 
     53 O          29.9864   31.7289    3.4241 O.2       8 UNK        -0.5275 
     54 N          31.5621   33.2717    2.9066 N.am      9 UNK        -0.4246 
     55 CA         32.1209   33.4648    4.2477 C.3       9 UNK         0.0261 
     56 CB         32.7854   34.8538    4.3104 C.3       9 UNK        -0.1959 
     57 C          33.0798   32.3280    4.6604 C.2       9 UNK         0.5033 
     58 O          34.2587   32.5851    4.9160 O.2       9 UNK        -0.5390 
     59 N          32.5448   31.1014    4.7301 N.am      10 UNK        -0.4215 
     60 CA         33.2070   29.8419    5.0996 C.3       10 UNK         0.0240 
     61 CB         33.7941   29.9186    6.5276 C.3       10 UNK        -0.1982 
     62 C          34.2372   29.3566    4.0571 C.2       10 UNK         0.4970 
     63 O          34.3991   29.9663    2.9969 O.2       10 UNK        -0.4916 
     64 N          34.8890   28.2278    4.3684 N.am      11 UNK        -0.4279 
     65 CA         35.8121   27.5039    3.4766 C.3       11 UNK         0.1003 
     66 C          37.1338   28.2498    3.1244 C.2       11 UNK         0.5709 
     67 N          37.5051   29.3168    3.8217 N.am      11 UNK        -0.7358 
     68 O          37.8355   27.8484    2.1989 O.2       11 UNK        -0.4999 
     69 C69        36.1248   26.0671    3.9885 C.3       12 UNK        -0.0954 
     70 S70        34.6919   25.1188    4.6074 S.3       12 UNK        -0.2268 
     71 C71        33.7101   24.8921    3.0912 C.3       12 UNK         0.0203 
     72 H72        25.9954   19.6608   -1.7337 H         1 UNK         0.0888 
     73 H73        27.0087   19.3108   -3.1366 H         1 UNK         0.0888 
     74 H74        27.5578   18.8687   -1.5191 H         1 UNK         0.0888 
     75 H75        29.1345   20.2689   -0.7516 H         1 UNK         0.3017 
     76 H76        29.5916   22.8354   -1.9487 H         1 UNK         0.0873 
     77 H77        31.5493   22.9146   -0.2613 H         1 UNK         0.0745 
     78 H78        31.5573   21.7268   -1.5083 H         1 UNK         0.0745 
     79 H79        30.4502   20.2887    2.7889 H         1 UNK         0.0705 
     80 H80        29.3230   21.1967    1.8291 H         1 UNK         0.0705 
     81 H81        32.7328   22.6526    1.8820 H         1 UNK         0.1334 
     82 H82        31.7866   25.5312    4.9011 H         1 UNK         0.1417 
     83 H83        29.0169   22.3873    4.0172 H         1 UNK         0.1562 
     84 H84        29.9620   24.8674    6.5324 H         1 UNK         0.0748 
     85 H85        28.8043   23.6514    6.0793 H         1 UNK         0.0748 
     86 H86        30.2331   27.0492    5.4636 H         1 UNK         0.0940 
     87 H87        28.9047   27.7246    6.3431 H         1 UNK         0.0940 
     88 H88        29.7214   29.1559    4.4918 H         1 UNK         0.0703 
     89 H89        28.6329   27.2326    2.4963 H         1 UNK         0.3081 
     90 H90        30.8065   28.5845    0.1566 H         1 UNK         0.0719 
     91 H91        32.6106   27.0927    0.8525 H         1 UNK         0.0809 
     92 H92        31.4713   25.7959    1.1986 H         1 UNK         0.0809 
     93 H93        31.7207   26.3382   -0.4598 H         1 UNK         0.0809 
     94 H94        29.2398   26.1943    0.0510 H         1 UNK         0.2990 
     95 H95        26.0715   27.7455   -0.1880 H         1 UNK         0.0690 
     96 H96        26.9310   28.2949   -2.4681 H         1 UNK         0.0788 
     97 H97        25.9539   26.8367   -2.4893 H         1 UNK         0.0788 
     98 H98        27.7132   26.7226   -2.5650 H         1 UNK         0.0788 
     99 H99        26.8419   25.1060   -0.8523 H         1 UNK         0.2993 
    100 H100       27.4831   23.8047    2.3732 H         1 UNK         0.0949 
    101 H101       24.9508   23.3448    0.7079 H         1 UNK         0.0767 
    102 H102       25.5763   22.2861    1.9738 H         1 UNK         0.0767 
    103 H103       24.9757   23.8836    2.3823 H         1 UNK         0.0767 
    104 H104       27.2073   22.2595    0.1233 H         1 UNK         0.3013 
    105 H105       26.8299   27.7634    2.9269 H         1 UNK         0.3121 
    106 H106       24.9793   29.3460    4.4161 H         1 UNK         0.0774 
    107 H107       24.6716   28.0166    1.6744 H         1 UNK         0.0815 
    108 H108       23.3641   28.5986    2.6927 H         1 UNK         0.0815 
    109 H109       24.3552   27.2511    3.2294 H         1 UNK         0.0815 
    110 H110       26.8506   30.0402    1.4602 H         1 UNK         0.2987 
    111 H111       25.5358   32.7298    1.2733 H         1 UNK         0.0949 
    112 H112       26.7552   31.0543   -0.9837 H         1 UNK         0.0806 
    113 H113       25.0364   31.3189   -0.7078 H         1 UNK         0.0806 
    114 H114       26.0781   32.6676   -1.1308 H         1 UNK         0.0806 
    115 H115       28.6415   30.9557    0.7032 H         1 UNK         0.3010 
    116 H116       30.1454   33.4671    0.7457 H         1 UNK         0.0829 
    117 H117       30.7008   31.4108   -0.7196 H         1 UNK         0.0813 
    118 H118       32.0434   32.1158    0.1668 H         1 UNK         0.0813 
    119 H119       31.3021   30.6476    0.7547 H         1 UNK         0.0813 
    120 H120       32.0005   33.7974    2.1639 H         1 UNK         0.3038 
    121 H121       31.3005   33.4645    4.9690 H         1 UNK         0.0769 
    122 H122       33.6166   34.9370    3.6089 H         1 UNK         0.0811 
    123 H123       33.1793   35.0537    5.3078 H         1 UNK         0.0811 
    124 H124       32.0723   35.6463    4.0826 H         1 UNK         0.0811 
    125 H125       31.5904   31.0086    4.3909 H         1 UNK         0.3204 
    126 H126       32.4141   29.0928    5.1130 H         1 UNK         0.0748 
    127 H127       34.0767   28.9330    6.8982 H         1 UNK         0.0771 
    128 H128       34.6836   30.5481    6.5690 H         1 UNK         0.0771 
    129 H129       33.0672   30.3233    7.2319 H         1 UNK         0.0771 
    130 H130       34.7034   27.7809    5.2535 H         1 UNK         0.2980 
    131 H131       35.2869   27.3984    2.5260 H         1 UNK         0.0545 
    132 H132       38.3611   29.7911    3.5814 H         1 UNK         0.3459 
    133 H133       36.9265   29.6639    4.5694 H         1 UNK         0.3459 
    134 H134       36.6034   25.4815    3.2013 H         1 UNK         0.0616 
    135 H135       36.8453   26.1131    4.8075 H         1 UNK         0.0616 
    136 H136       34.3094   24.3553    2.3543 H         1 UNK         0.0634 
    137 H137       33.4875   25.8707    2.6689 H         1 UNK         0.0634 
@<TRIPOS>BOND
     1    1    2 1    
     2    1   72 1    
     3    1   73 1    
     4    1   74 1    
     5    2    3 2    
     6    2    4 am   BACKBONE|DICT|INTERRES
     7    4    5 1    
     8    4   75 1    
     9    5    6 1    
    10    5   35 1    
    11    5   76 1    
    12    6    7 1    
    13    6   77 1    
    14    6   78 1    
    15    7    8 1    
    16    8    9 1    
    17    8   79 1    
    18    8   80 1    
    19    9   10 ar   
    20    9   14 ar   
    21   10   11 ar   
    22   10   81 1    
    23   11   12 ar   
    24   11   71 1    
    25   12   13 ar   
    26   12   82 1    
    27   13   14 ar   
    28   13   15 1    
    29   14   83 1    
    30   15   16 1    
    31   15   84 1    
    32   15   85 1    
    33   16   17 1    
    34   17   18 1    
    35   17   86 1    
    36   17   87 1    
    37   18   19 1    
    38   18   37 1    
    39   18   88 1    
    40   19   20 am   BACKBONE|DICT|INTERRES
    41   19   89 1    
    42   20   21 2    
    43   20   22 1    
    44   22   23 1    
    45   22   24 1    
    46   22   90 1    
    47   23   91 1    
    48   23   92 1    
    49   23   93 1    
    50   24   25 am   BACKBONE|DICT|INTERRES
    51   24   94 1    
    52   25   26 2    
    53   25   27 1    
    54   27   28 1    
    55   27   29 1    
    56   27   95 1    
    57   28   96 1    
    58   28   97 1    
    59   28   98 1    
    60   29   30 am   BACKBONE|DICT|INTERRES
    61   29   99 1    
    62   30   31 2    
    63   30   32 1    
    64   32   33 1    
    65   32   34 1    
    66   32  100 1    
    67   33  101 1    
    68   33  102 1    
    69   33  103 1    
    70   34   35 am   BACKBONE|DICT|INTERRES
    71   34  104 1    
    72   35   36 2    
    73   37   38 2    
    74   37   39 am   BACKBONE|DICT|INTERRES
    75   39   40 1    
    76   39  105 1    
    77   40   41 1    
    78   40   42 1    
    79   40  106 1    
    80   41  107 1    
    81   41  108 1    
    82   41  109 1    
    83   42   43 2    
    84   42   44 am   BACKBONE|DICT|INTERRES
    85   44   45 1    
    86   44  110 1    
    87   45   46 1    
    88   45   47 1    
    89   45  111 1    
    90   46  112 1    
    91   46  113 1    
    92   46  114 1    
    93   47   48 2    
    94   47   49 am   BACKBONE|DICT|INTERRES
    95   49   50 1    
    96   49  115 1    
    97   50   51 1    
    98   50   52 1    
    99   50  116 1    
   100   51  117 1    
   101   51  118 1    
   102   51  119 1    
   103   52   53 2    
   104   52   54 am   BACKBONE|DICT|INTERRES
   105   54   55 1    
   106   54  120 1    
   107   55   56 1    
   108   55   57 1    
   109   55  121 1    
   110   56  122 1    
   111   56  123 1    
   112   56  124 1    
   113   57   58 2    
   114   57   59 am   BACKBONE|DICT|INTERRES
   115   59   60 1    
   116   59  125 1    
   117   60   61 1    
   118   60   62 1    
   119   60  126 1    
   120   61  127 1    
   121   61  128 1    
   122   61  129 1    
   123   62   63 2    
   124   62   64 am   BACKBONE|DICT|INTERRES
   125   64   65 1    
   126   64  130 1    
   127   65   66 1    
   128   65   69 1    
   129   65  131 1    
   130   66   67 am   BACKBONE|DICT|INTERRES
   131   66   68 2    
   132   67  132 1    
   133   67  133 1    
   134   69   70 1    
   135   69  134 1    
   136   69  135 1    
   137   70   71 1    
   138   71  136 1    
   139   71  137 1    
@<TRIPOS>SUBSTRUCTURE
     1 UNK         1 GROUP             0       ****    0 ROOT    
