@<TRIPOS>MOLECULE
3R136
137   139    1
SMALL
USER_CHARGES


@<TRIPOS>ATOM
      1 CA         27.1065   18.7815    2.9320 C.3       0 UNK        -0.1979 
      2 C          27.8007   19.5718    1.8324 C.2       0 UNK         0.4864 
      3 O          28.8874   19.1891    1.3964 O.2       0 UNK        -0.5359 
      4 N          27.1829   20.6683    1.3818 N.am      1 UNK        -0.4318 
      5 CA         27.6763   21.5432    0.3227 C.3       1 UNK         0.0824 
      6 C6         28.6931   22.5789    0.8665 C.3       12 UNK        -0.0944 
      7 S7         29.5404   23.5270   -0.4464 S.3       12 UNK        -0.2672 
      8 C8         31.2981   23.2306   -0.0624 C.3       12 UNK         0.0333 
      9 C9         31.8038   24.1699    1.0251 C.ar      12 UNK        -0.0807 
     10 C10        32.5355   25.3136    0.6887 C.ar      12 UNK        -0.0894 
     11 C11        33.0022   26.1859    1.6796 C.ar      12 UNK        -0.0804 
     12 C12        32.7137   25.9053    3.0217 C.ar      12 UNK        -0.0824 
     13 C13        31.9705   24.7747    3.3680 C.ar      12 UNK        -0.0762 
     14 C14        31.5424   23.8985    2.3698 C.ar      12 UNK        -0.0782 
     15 C15        31.5864   24.5153    4.8153 C.3       12 UNK         0.0230 
     16 S16        29.8038   24.7924    5.0713 S.3       12 UNK        -0.2608 
     17 C17        29.6704   26.6001    4.8398 C.3       12 UNK        -0.0989 
     18 CA         29.2722   27.0430    3.4007 C.3       5 UNK         0.0716 
     19 N          28.1137   26.3316    2.8454 N.am      5 UNK        -0.4135 
     20 C          26.8618   26.3088    3.3250 C.2       4 UNK         0.5031 
     21 O          26.5171   26.8610    4.3711 O.2       4 UNK        -0.5229 
     22 CA         25.8132   25.5754    2.4569 C.3       4 UNK         0.0329 
     23 CB         24.3750   26.0565    2.7410 C.3       4 UNK        -0.2001 
     24 N          26.0843   25.6288    1.0101 N.am      4 UNK        -0.4303 
     25 C          26.2825   26.7301    0.2642 C.2       3 UNK         0.5044 
     26 O          26.2901   27.8679    0.7316 O.2       3 UNK        -0.5152 
     27 CA         26.5860   26.5553   -1.2354 C.3       3 UNK         0.0319 
     28 CB         28.0010   27.0681   -1.5534 C.3       3 UNK        -0.2001 
     29 N          26.4715   25.1695   -1.6909 N.am      3 UNK        -0.4354 
     30 C          25.3270   24.5776   -2.0615 C.2       2 UNK         0.4964 
     31 O          24.2431   25.1573   -2.1272 O.2       2 UNK        -0.5047 
     32 CA         25.4008   23.0737   -2.3851 C.3       2 UNK         0.0288 
     33 CB         25.6227   22.8561   -3.8907 C.3       2 UNK        -0.2113 
     34 N          26.4459   22.3693   -1.6324 N.am      2 UNK        -0.4145 
     35 C          26.4496   22.2209   -0.3003 C.2       1 UNK         0.5006 
     36 O          25.5555   22.6396    0.4401 O.2       1 UNK        -0.5103 
     37 C          29.1705   28.5857    3.2933 C.2       5 UNK         0.5055 
     38 O          30.0214   29.2809    3.8511 O.2       5 UNK        -0.5220 
     39 N          28.1693   29.1256    2.5803 N.am      6 UNK        -0.4450 
     40 CA         27.9525   30.5705    2.4501 C.3       6 UNK         0.0367 
     41 CB         26.4982   30.8378    2.0315 C.3       6 UNK        -0.1929 
     42 C          28.9237   31.2495    1.4701 C.2       6 UNK         0.5070 
     43 O          29.0761   32.4689    1.5446 O.2       6 UNK        -0.5237 
     44 N          29.5655   30.4588    0.5936 N.am      7 UNK        -0.4739 
     45 CA         30.4502   30.8745   -0.5061 C.3       7 UNK         0.0276 
     46 CB         31.0909   29.6263   -1.1355 C.3       7 UNK        -0.1927 
     47 C          31.5387   31.8970   -0.1329 C.2       7 UNK         0.5013 
     48 O          31.8309   32.7853   -0.9348 O.2       7 UNK        -0.5193 
     49 N          32.0840   31.7748    1.0813 N.am      8 UNK        -0.4253 
     50 CA         32.9675   32.7586    1.7008 C.3       8 UNK         0.0242 
     51 CB         34.4402   32.4546    1.3598 C.3       8 UNK        -0.2000 
     52 C          32.6790   32.8442    3.2072 C.2       8 UNK         0.4948 
     53 O          33.6187   32.9069    4.0001 O.2       8 UNK        -0.5275 
     54 N          31.3831   32.8354    3.5685 N.am      9 UNK        -0.4246 
     55 CA         30.8229   33.0113    4.9180 C.3       9 UNK         0.0261 
     56 CB         30.8753   34.5030    5.3082 C.3       9 UNK        -0.1959 
     57 C          31.4768   32.1045    5.9810 C.2       9 UNK         0.5033 
     58 O          32.1882   32.5983    6.8575 O.2       9 UNK        -0.5390 
     59 N          31.2583   30.7903    5.8397 N.am      10 UNK        -0.4215 
     60 CA         31.8523   29.6675    6.5809 C.3       10 UNK         0.0240 
     61 CB         31.8595   29.8705    8.1105 C.3       10 UNK        -0.1982 
     62 C          33.2283   29.2380    6.0420 C.2       10 UNK         0.4970 
     63 O          33.6543   28.1230    6.3444 O.2       10 UNK        -0.4916 
     64 N          33.8752   30.0897    5.2338 N.am      11 UNK        -0.4279 
     65 CA         35.1347   29.8310    4.5156 C.3       11 UNK         0.1003 
     66 C          36.3933   29.7041    5.4266 C.2       11 UNK         0.5709 
     67 N          36.3485   30.1403    6.6802 N.am      11 UNK        -0.7358 
     68 O          37.4402   29.2347    4.9859 O.2       11 UNK        -0.4999 
     69 C69        35.0210   28.6769    3.4758 C.3       12 UNK        -0.0954 
     70 S70        33.6123   28.8701    2.3261 S.3       12 UNK        -0.2268 
     71 C71        33.8272   27.4036    1.2629 C.3       12 UNK         0.0203 
     72 H72        27.7424   18.7304    3.8154 H         1 UNK         0.0888 
     73 H73        26.1585   19.2338    3.2226 H         1 UNK         0.0888 
     74 H74        26.9079   17.7645    2.5950 H         1 UNK         0.0888 
     75 H75        26.2746   20.9356    1.7420 H         1 UNK         0.3017 
     76 H76        28.1585   20.9273   -0.4401 H         1 UNK         0.0873 
     77 H77        29.4413   22.0443    1.4493 H         1 UNK         0.0745 
     78 H78        28.2185   23.2755    1.5602 H         1 UNK         0.0745 
     79 H79        31.8782   23.3725   -0.9755 H         1 UNK         0.0705 
     80 H80        31.4514   22.1909    0.2305 H         1 UNK         0.0705 
     81 H81        32.7464   25.5231   -0.3513 H         1 UNK         0.1334 
     82 H82        33.0420   26.5733    3.8042 H         1 UNK         0.1417 
     83 H83        30.9792   23.0211    2.6506 H         1 UNK         0.1562 
     84 H84        32.1593   25.1465    5.4969 H         1 UNK         0.0748 
     85 H85        31.8274   23.4835    5.0747 H         1 UNK         0.0748 
     86 H86        30.6277   27.0435    5.1143 H         1 UNK         0.0940 
     87 H87        28.9475   26.9758    5.5661 H         1 UNK         0.0940 
     88 H88        30.0957   26.7803    2.7380 H         1 UNK         0.0703 
     89 H89        28.2882   25.8406    1.9812 H         1 UNK         0.3081 
     90 H90        25.8722   24.5231    2.7391 H         1 UNK         0.0719 
     91 H91        24.2561   27.1190    2.5252 H         1 UNK         0.0809 
     92 H92        23.6487   25.5087    2.1404 H         1 UNK         0.0809 
     93 H93        24.1077   25.9040    3.7873 H         1 UNK         0.0809 
     94 H94        26.0663   24.7321    0.5396 H         1 UNK         0.2990 
     95 H95        25.8715   27.1726   -1.7841 H         1 UNK         0.0690 
     96 H96        28.2272   26.9772   -2.6159 H         1 UNK         0.0788 
     97 H97        28.7667   26.5242   -0.9989 H         1 UNK         0.0788 
     98 H98        28.0962   28.1235   -1.2950 H         1 UNK         0.0788 
     99 H99        27.3177   24.6169   -1.6759 H         1 UNK         0.2993 
    100 H100       24.4382   22.6351   -2.1120 H         1 UNK         0.0949 
    101 H101       25.5936   21.7969   -4.1474 H         1 UNK         0.0767 
    102 H102       24.8449   23.3503   -4.4749 H         1 UNK         0.0767 
    103 H103       26.5823   23.2567   -4.2206 H         1 UNK         0.0767 
    104 H104       27.2242   22.0093   -2.1668 H         1 UNK         0.3013 
    105 H105       27.4988   28.5256    2.1060 H         1 UNK         0.3121 
    106 H106       28.1049   31.0286    3.4299 H         1 UNK         0.0774 
    107 H107       26.2804   31.9066    2.0455 H         1 UNK         0.0815 
    108 H108       26.2956   30.4809    1.0213 H         1 UNK         0.0815 
    109 H109       25.7928   30.3537    2.7072 H         1 UNK         0.0815 
    110 H110       29.3625   29.4719    0.6465 H         1 UNK         0.2987 
    111 H111       29.8171   31.3495   -1.2583 H         1 UNK         0.0949 
    112 H112       31.6531   29.0502   -0.4004 H         1 UNK         0.0806 
    113 H113       30.3415   28.9696   -1.5754 H         1 UNK         0.0806 
    114 H114       31.7824   29.8994   -1.9341 H         1 UNK         0.0806 
    115 H115       31.7979   30.9980    1.6628 H         1 UNK         0.3010 
    116 H116       32.7319   33.7490    1.3048 H         1 UNK         0.0829 
    117 H117       34.6064   32.4668    0.2826 H         1 UNK         0.0813 
    118 H118       35.1062   33.1997    1.7965 H         1 UNK         0.0813 
    119 H119       34.7508   31.4802    1.7325 H         1 UNK         0.0813 
    120 H120       30.6941   32.7743    2.8245 H         1 UNK         0.3038 
    121 H121       29.7720   32.7224    4.8616 H         1 UNK         0.0769 
    122 H122       30.4234   34.6676    6.2872 H         1 UNK         0.0811 
    123 H123       30.3311   35.1193    4.5926 H         1 UNK         0.0811 
    124 H124       31.9006   34.8722    5.3561 H         1 UNK         0.0811 
    125 H125       30.7001   30.4787    5.0438 H         1 UNK         0.3204 
    126 H126       31.1843   28.8296    6.3873 H         1 UNK         0.0748 
    127 H127       32.1074   28.9387    8.6203 H         1 UNK         0.0771 
    128 H128       32.5977   30.6088    8.4241 H         1 UNK         0.0771 
    129 H129       30.8834   30.1899    8.4753 H         1 UNK         0.0771 
    130 H130       33.4783   31.0070    5.0725 H         1 UNK         0.2980 
    131 H131       35.3190   30.7430    3.9489 H         1 UNK         0.0545 
    132 H132       35.5015   30.5415    7.0493 H         1 UNK         0.3459 
    133 H133       37.1694   30.0651    7.2597 H         1 UNK         0.3459 
    134 H134       35.9286   28.6324    2.8714 H         1 UNK         0.0616 
    135 H135       34.9499   27.7138    3.9810 H         1 UNK         0.0616 
    136 H136       34.8805   27.1232    1.2273 H         1 UNK         0.0634 
    137 H137       33.5585   27.6969    0.2474 H         1 UNK         0.0634 
@<TRIPOS>BOND
     1    1    2 1    
     2    1   72 1    
     3    1   73 1    
     4    1   74 1    
     5    2    3 2    
     6    2    4 am   BACKBONE|DICT|INTERRES
     7    4    5 1    
     8    4   75 1    
     9    5    6 1    
    10    5   35 1    
    11    5   76 1    
    12    6    7 1    
    13    6   77 1    
    14    6   78 1    
    15    7    8 1    
    16    8    9 1    
    17    8   79 1    
    18    8   80 1    
    19    9   10 ar   
    20    9   14 ar   
    21   10   11 ar   
    22   10   81 1    
    23   11   12 ar   
    24   11   71 1    
    25   12   13 ar   
    26   12   82 1    
    27   13   14 ar   
    28   13   15 1    
    29   14   83 1    
    30   15   16 1    
    31   15   84 1    
    32   15   85 1    
    33   16   17 1    
    34   17   18 1    
    35   17   86 1    
    36   17   87 1    
    37   18   19 1    
    38   18   37 1    
    39   18   88 1    
    40   19   20 am   BACKBONE|DICT|INTERRES
    41   19   89 1    
    42   20   21 2    
    43   20   22 1    
    44   22   23 1    
    45   22   24 1    
    46   22   90 1    
    47   23   91 1    
    48   23   92 1    
    49   23   93 1    
    50   24   25 am   BACKBONE|DICT|INTERRES
    51   24   94 1    
    52   25   26 2    
    53   25   27 1    
    54   27   28 1    
    55   27   29 1    
    56   27   95 1    
    57   28   96 1    
    58   28   97 1    
    59   28   98 1    
    60   29   30 am   BACKBONE|DICT|INTERRES
    61   29   99 1    
    62   30   31 2    
    63   30   32 1    
    64   32   33 1    
    65   32   34 1    
    66   32  100 1    
    67   33  101 1    
    68   33  102 1    
    69   33  103 1    
    70   34   35 am   BACKBONE|DICT|INTERRES
    71   34  104 1    
    72   35   36 2    
    73   37   38 2    
    74   37   39 am   BACKBONE|DICT|INTERRES
    75   39   40 1    
    76   39  105 1    
    77   40   41 1    
    78   40   42 1    
    79   40  106 1    
    80   41  107 1    
    81   41  108 1    
    82   41  109 1    
    83   42   43 2    
    84   42   44 am   BACKBONE|DICT|INTERRES
    85   44   45 1    
    86   44  110 1    
    87   45   46 1    
    88   45   47 1    
    89   45  111 1    
    90   46  112 1    
    91   46  113 1    
    92   46  114 1    
    93   47   48 2    
    94   47   49 am   BACKBONE|DICT|INTERRES
    95   49   50 1    
    96   49  115 1    
    97   50   51 1    
    98   50   52 1    
    99   50  116 1    
   100   51  117 1    
   101   51  118 1    
   102   51  119 1    
   103   52   53 2    
   104   52   54 am   BACKBONE|DICT|INTERRES
   105   54   55 1    
   106   54  120 1    
   107   55   56 1    
   108   55   57 1    
   109   55  121 1    
   110   56  122 1    
   111   56  123 1    
   112   56  124 1    
   113   57   58 2    
   114   57   59 am   BACKBONE|DICT|INTERRES
   115   59   60 1    
   116   59  125 1    
   117   60   61 1    
   118   60   62 1    
   119   60  126 1    
   120   61  127 1    
   121   61  128 1    
   122   61  129 1    
   123   62   63 2    
   124   62   64 am   BACKBONE|DICT|INTERRES
   125   64   65 1    
   126   64  130 1    
   127   65   66 1    
   128   65   69 1    
   129   65  131 1    
   130   66   67 am   BACKBONE|DICT|INTERRES
   131   66   68 2    
   132   67  132 1    
   133   67  133 1    
   134   69   70 1    
   135   69  134 1    
   136   69  135 1    
   137   70   71 1    
   138   71  136 1    
   139   71  137 1    
@<TRIPOS>SUBSTRUCTURE
     1 UNK         1 GROUP             0       ****    0 ROOT    
