@<TRIPOS>MOLECULE
3R136
137   139    1
SMALL
USER_CHARGES


@<TRIPOS>ATOM
      1 CA         30.1362   23.4996    4.4948 C.3       0 UNK        -0.1979 
      2 C          29.4974   22.3161    3.7950 C.2       0 UNK         0.4864 
      3 O          28.4754   21.8115    4.2614 O.2       0 UNK        -0.5359 
      4 N          30.0887   21.8724    2.6774 N.am      1 UNK        -0.4318 
      5 CA         29.6960   20.6664    1.9336 C.3       1 UNK         0.0824 
      6 C6         30.7407   20.2378    0.8648 C.3       12 UNK        -0.0944 
      7 S7         32.4823   20.5062    1.3634 S.3       12 UNK        -0.2672 
      8 C8         33.0327   21.7948    0.1926 C.3       12 UNK         0.0333 
      9 C9         32.3488   23.1387    0.4217 C.ar      12 UNK        -0.0807 
     10 C10        32.9282   24.1029    1.2557 C.ar      12 UNK        -0.0894 
     11 C11        32.3217   25.3538    1.4246 C.ar      12 UNK        -0.0804 
     12 C12        31.1030   25.6162    0.7933 C.ar      12 UNK        -0.0824 
     13 C13        30.5201   24.6647   -0.0473 C.ar      12 UNK        -0.0762 
     14 C14        31.1574   23.4394   -0.2453 C.ar      12 UNK        -0.0782 
     15 C15        29.2137   24.9675   -0.7594 C.3       12 UNK         0.0230 
     16 S16        29.4691   26.1348   -2.1197 S.3       12 UNK        -0.2608 
     17 C17        27.9551   27.1596   -2.0137 C.3       12 UNK        -0.0989 
     18 CA         28.0737   28.4893   -1.2107 C.3       5 UNK         0.0716 
     19 N          27.8273   28.2994    0.2265 N.am      5 UNK        -0.4135 
     20 C          27.3882   29.2683    1.0410 C.2       4 UNK         0.5031 
     21 O          27.1465   30.4113    0.6484 O.2       4 UNK        -0.5229 
     22 CA         27.1854   28.9214    2.5320 C.3       4 UNK         0.0329 
     23 CB         26.4213   30.0302    3.2817 C.3       4 UNK        -0.2001 
     24 N          26.4905   27.6526    2.7714 N.am      4 UNK        -0.4303 
     25 C          27.0153   26.4260    2.6641 C.2       3 UNK         0.5044 
     26 O          28.1496   26.2197    2.2331 O.2       3 UNK        -0.5152 
     27 CA         26.1528   25.2438    3.1571 C.3       3 UNK         0.0319 
     28 CB         24.6393   25.5558    3.2221 C.3       3 UNK        -0.2001 
     29 N          26.3907   23.9987    2.4154 N.am      3 UNK        -0.4354 
     30 C          26.1711   23.7770    1.1100 C.2       2 UNK         0.4964 
     31 O          25.7592   24.6301    0.3223 O.2       2 UNK        -0.5047 
     32 CA         26.4922   22.3586    0.6117 C.3       2 UNK         0.0288 
     33 CB         26.3012   22.1682   -0.9074 C.3       2 UNK        -0.2113 
     34 N          27.8519   22.0078    1.0164 N.am      2 UNK        -0.4145 
     35 C          28.2843   20.7746    1.3137 C.2       1 UNK         0.5006 
     36 O          27.6154   19.7534    1.1460 O.2       1 UNK        -0.5103 
     37 C          29.3838   29.2601   -1.5030 C.2       5 UNK         0.5055 
     38 O          29.5342   29.7898   -2.6059 O.2       5 UNK        -0.5220 
     39 N          30.3168   29.2763   -0.5421 N.am      6 UNK        -0.4450 
     40 CA         31.6847   29.7610   -0.6930 C.3       6 UNK         0.0367 
     41 CB         32.5378   28.6696   -1.3757 C.3       6 UNK        -0.1929 
     42 C          32.2466   30.1571    0.6801 C.2       6 UNK         0.5070 
     43 O          31.5117   30.1518    1.6727 O.2       6 UNK        -0.5237 
     44 N          33.5437   30.5004    0.7009 N.am      7 UNK        -0.4739 
     45 CA         34.3474   30.8941    1.8679 C.3       7 UNK         0.0276 
     46 CB         34.5219   29.7056    2.8385 C.3       7 UNK        -0.1927 
     47 C          33.8089   32.1544    2.5680 C.2       7 UNK         0.5013 
     48 O          33.7664   32.2040    3.7966 O.2       7 UNK        -0.5193 
     49 N          33.3498   33.1328    1.7714 N.am      8 UNK        -0.4253 
     50 CA         32.7052   34.3832    2.2051 C.3       8 UNK         0.0242 
     51 CB         33.7420   35.3287    2.8493 C.3       8 UNK        -0.2000 
     52 C          31.4726   34.1500    3.1074 C.2       8 UNK         0.4948 
     53 O          31.2156   34.9429    4.0143 O.2       8 UNK        -0.5275 
     54 N          30.7593   33.0425    2.8499 N.am      9 UNK        -0.4246 
     55 CA         29.6147   32.5070    3.5915 C.3       9 UNK         0.0261 
     56 CB         28.4500   33.5199    3.6569 C.3       9 UNK        -0.1959 
     57 C          29.9614   31.9185    4.9743 C.2       9 UNK         0.5033 
     58 O          29.0362   31.5561    5.7030 O.2       9 UNK        -0.5390 
     59 N          31.2535   31.7601    5.3143 N.am      10 UNK        -0.4215 
     60 CA         31.7003   31.1364    6.5706 C.3       10 UNK         0.0240 
     61 CB         33.2135   31.3310    6.7522 C.3       10 UNK        -0.1982 
     62 C          31.3368   29.6438    6.6765 C.2       10 UNK         0.4970 
     63 O          31.2045   29.1339    7.7896 O.2       10 UNK        -0.4916 
     64 N          31.1485   28.9879    5.5245 N.am      11 UNK        -0.4279 
     65 CA         30.5643   27.6461    5.4035 C.3       11 UNK         0.1003 
     66 C          29.0375   27.5771    5.7139 C.2       11 UNK         0.5709 
     67 N          28.3309   28.6837    5.9154 N.am      11 UNK        -0.7358 
     68 O          28.4811   26.4863    5.8018 O.2       11 UNK        -0.4999 
     69 C69        30.9113   27.0214    4.0261 C.3       12 UNK        -0.0954 
     70 S70        32.6238   26.3973    3.9958 S.3       12 UNK        -0.2268 
     71 C71        33.0159   26.4494    2.2232 C.3       12 UNK         0.0203 
     72 H72        30.9529   23.9184    3.9082 H         1 UNK         0.0888 
     73 H73        29.3884   24.2738    4.6566 H         1 UNK         0.0888 
     74 H74        30.5307   23.1983    5.4645 H         1 UNK         0.0888 
     75 H75        30.9321   22.3212    2.3441 H         1 UNK         0.3017 
     76 H76        29.6455   19.8632    2.6723 H         1 UNK         0.0873 
     77 H77        30.6211   19.1730    0.6568 H         1 UNK         0.0745 
     78 H78        30.5603   20.7255   -0.0915 H         1 UNK         0.0745 
     79 H79        34.1130   21.9125    0.2902 H         1 UNK         0.0705 
     80 H80        32.8614   21.4522   -0.8292 H         1 UNK         0.0705 
     81 H81        33.8686   23.8930    1.7473 H         1 UNK         0.1334 
     82 H82        30.6221   26.5746    0.9275 H         1 UNK         0.1417 
     83 H83        30.7244   22.7252   -0.9307 H         1 UNK         0.1562 
     84 H84        28.4917   25.3654   -0.0522 H         1 UNK         0.0748 
     85 H85        28.7761   24.0568   -1.1643 H         1 UNK         0.0748 
     86 H86        27.1235   26.5577   -1.6419 H         1 UNK         0.0940 
     87 H87        27.6836   27.4024   -3.0426 H         1 UNK         0.0940 
     88 H88        27.2703   29.1313   -1.5797 H         1 UNK         0.0703 
     89 H89        28.0131   27.3854    0.6272 H         1 UNK         0.3081 
     90 H90        28.1831   28.8508    2.9700 H         1 UNK         0.0719 
     91 H91        26.9365   30.9861    3.2018 H         1 UNK         0.0809 
     92 H92        25.4174   30.1696    2.8788 H         1 UNK         0.0809 
     93 H93        26.3265   29.8089    4.3440 H         1 UNK         0.0809 
     94 H94        25.5381   27.7264    3.0976 H         1 UNK         0.2990 
     95 H95        26.4891   25.0461    4.1761 H         1 UNK         0.0690 
     96 H96        24.0722   24.6797    3.5371 H         1 UNK         0.0788 
     97 H97        24.2459   25.8717    2.2548 H         1 UNK         0.0788 
     98 H98        24.4225   26.3430    3.9450 H         1 UNK         0.0788 
     99 H99        26.7653   23.2374    2.9670 H         1 UNK         0.2993 
    100 H100       25.7918   21.6934    1.1222 H         1 UNK         0.0949 
    101 H101       26.5121   21.1420   -1.2085 H         1 UNK         0.0767 
    102 H102       25.2717   22.3826   -1.1970 H         1 UNK         0.0767 
    103 H103       26.9432   22.8258   -1.4905 H         1 UNK         0.0767 
    104 H104       28.4690   22.7845    1.2118 H         1 UNK         0.3013 
    105 H105       30.0939   28.9256    0.3790 H         1 UNK         0.3121 
    106 H106       31.6787   30.6596   -1.3133 H         1 UNK         0.0774 
    107 H107       32.6153   27.7744   -0.7576 H         1 UNK         0.0815 
    108 H108       33.5506   29.0155   -1.5823 H         1 UNK         0.0815 
    109 H109       32.1086   28.3703   -2.3321 H         1 UNK         0.0815 
    110 H110       34.0460   30.4822   -0.1764 H         1 UNK         0.2987 
    111 H111       35.3372   31.1595    1.4927 H         1 UNK         0.0949 
    112 H112       33.5766   29.4116    3.2956 H         1 UNK         0.0806 
    113 H113       34.9359   28.8359    2.3296 H         1 UNK         0.0806 
    114 H114       35.2065   29.9587    3.6490 H         1 UNK         0.0806 
    115 H115       33.4126   32.9916    0.7724 H         1 UNK         0.3010 
    116 H116       32.3302   34.8683    1.3026 H         1 UNK         0.0829 
    117 H117       34.1186   34.9323    3.7930 H         1 UNK         0.0813 
    118 H118       34.5944   35.4919    2.1900 H         1 UNK         0.0813 
    119 H119       33.3052   36.3060    3.0587 H         1 UNK         0.0813 
    120 H120       31.0969   32.4356    2.1133 H         1 UNK         0.3038 
    121 H121       29.2702   31.6576    2.9998 H         1 UNK         0.0769 
    122 H122       27.5585   33.0707    4.0950 H         1 UNK         0.0811 
    123 H123       28.6960   34.3876    4.2688 H         1 UNK         0.0811 
    124 H124       28.1766   33.8741    2.6631 H         1 UNK         0.0811 
    125 H125       31.9848   32.0595    4.6743 H         1 UNK         0.3204 
    126 H126       31.1940   31.6529    7.3888 H         1 UNK         0.0748 
    127 H127       33.5357   30.9794    7.7333 H         1 UNK         0.0771 
    128 H128       33.7838   30.7752    6.0069 H         1 UNK         0.0771 
    129 H129       33.4933   32.3820    6.6758 H         1 UNK         0.0771 
    130 H130       31.2952   29.4863    4.6597 H         1 UNK         0.2980 
    131 H131       31.0219   27.0242    6.1754 H         1 UNK         0.0545 
    132 H132       28.7490   29.6067    5.8725 H         1 UNK         0.3459 
    133 H133       27.3545   28.5937    6.1416 H         1 UNK         0.3459 
    134 H134       30.2595   26.1850    3.7843 H         1 UNK         0.0616 
    135 H135       30.7635   27.7492    3.2263 H         1 UNK         0.0616 
    136 H136       34.0962   26.3545    2.1062 H         1 UNK         0.0634 
    137 H137       32.7570   27.4306    1.8250 H         1 UNK         0.0634 
@<TRIPOS>BOND
     1    1    2 1    
     2    1   72 1    
     3    1   73 1    
     4    1   74 1    
     5    2    3 2    
     6    2    4 am   BACKBONE|DICT|INTERRES
     7    4    5 1    
     8    4   75 1    
     9    5    6 1    
    10    5   35 1    
    11    5   76 1    
    12    6    7 1    
    13    6   77 1    
    14    6   78 1    
    15    7    8 1    
    16    8    9 1    
    17    8   79 1    
    18    8   80 1    
    19    9   10 ar   
    20    9   14 ar   
    21   10   11 ar   
    22   10   81 1    
    23   11   12 ar   
    24   11   71 1    
    25   12   13 ar   
    26   12   82 1    
    27   13   14 ar   
    28   13   15 1    
    29   14   83 1    
    30   15   16 1    
    31   15   84 1    
    32   15   85 1    
    33   16   17 1    
    34   17   18 1    
    35   17   86 1    
    36   17   87 1    
    37   18   19 1    
    38   18   37 1    
    39   18   88 1    
    40   19   20 am   BACKBONE|DICT|INTERRES
    41   19   89 1    
    42   20   21 2    
    43   20   22 1    
    44   22   23 1    
    45   22   24 1    
    46   22   90 1    
    47   23   91 1    
    48   23   92 1    
    49   23   93 1    
    50   24   25 am   BACKBONE|DICT|INTERRES
    51   24   94 1    
    52   25   26 2    
    53   25   27 1    
    54   27   28 1    
    55   27   29 1    
    56   27   95 1    
    57   28   96 1    
    58   28   97 1    
    59   28   98 1    
    60   29   30 am   BACKBONE|DICT|INTERRES
    61   29   99 1    
    62   30   31 2    
    63   30   32 1    
    64   32   33 1    
    65   32   34 1    
    66   32  100 1    
    67   33  101 1    
    68   33  102 1    
    69   33  103 1    
    70   34   35 am   BACKBONE|DICT|INTERRES
    71   34  104 1    
    72   35   36 2    
    73   37   38 2    
    74   37   39 am   BACKBONE|DICT|INTERRES
    75   39   40 1    
    76   39  105 1    
    77   40   41 1    
    78   40   42 1    
    79   40  106 1    
    80   41  107 1    
    81   41  108 1    
    82   41  109 1    
    83   42   43 2    
    84   42   44 am   BACKBONE|DICT|INTERRES
    85   44   45 1    
    86   44  110 1    
    87   45   46 1    
    88   45   47 1    
    89   45  111 1    
    90   46  112 1    
    91   46  113 1    
    92   46  114 1    
    93   47   48 2    
    94   47   49 am   BACKBONE|DICT|INTERRES
    95   49   50 1    
    96   49  115 1    
    97   50   51 1    
    98   50   52 1    
    99   50  116 1    
   100   51  117 1    
   101   51  118 1    
   102   51  119 1    
   103   52   53 2    
   104   52   54 am   BACKBONE|DICT|INTERRES
   105   54   55 1    
   106   54  120 1    
   107   55   56 1    
   108   55   57 1    
   109   55  121 1    
   110   56  122 1    
   111   56  123 1    
   112   56  124 1    
   113   57   58 2    
   114   57   59 am   BACKBONE|DICT|INTERRES
   115   59   60 1    
   116   59  125 1    
   117   60   61 1    
   118   60   62 1    
   119   60  126 1    
   120   61  127 1    
   121   61  128 1    
   122   61  129 1    
   123   62   63 2    
   124   62   64 am   BACKBONE|DICT|INTERRES
   125   64   65 1    
   126   64  130 1    
   127   65   66 1    
   128   65   69 1    
   129   65  131 1    
   130   66   67 am   BACKBONE|DICT|INTERRES
   131   66   68 2    
   132   67  132 1    
   133   67  133 1    
   134   69   70 1    
   135   69  134 1    
   136   69  135 1    
   137   70   71 1    
   138   71  136 1    
   139   71  137 1    
@<TRIPOS>SUBSTRUCTURE
     1 UNK         1 GROUP             0       ****    0 ROOT    
