@<TRIPOS>MOLECULE
3R136
137   139    1
SMALL
USER_CHARGES


@<TRIPOS>ATOM
      1 CA         26.9879   22.6859    4.9561 C.3       0 UNK        -0.1979 
      2 C          26.7550   22.7727    3.4559 C.2       0 UNK         0.4864 
      3 O          25.6368   22.5363    2.9958 O.2       0 UNK        -0.5359 
      4 N          27.8021   23.1020    2.6895 N.am      1 UNK        -0.4318 
      5 CA         27.7392   23.2499    1.2332 C.3       1 UNK         0.0824 
      6 C6         29.1215   23.0758    0.5564 C.3       12 UNK        -0.0944 
      7 S7         29.8352   21.4237    0.8560 S.3       12 UNK        -0.2672 
      8 C8         31.6306   21.7610    0.7548 C.3       12 UNK         0.0333 
      9 C9         32.1821   22.7073    1.8232 C.ar      12 UNK        -0.0807 
     10 C10        33.3376   23.4448    1.5453 C.ar      12 UNK        -0.0894 
     11 C11        33.8686   24.3350    2.4865 C.ar      12 UNK        -0.0804 
     12 C12        33.2305   24.4827    3.7234 C.ar      12 UNK        -0.0824 
     13 C13        32.0905   23.7325    4.0264 C.ar      12 UNK        -0.0762 
     14 C14        31.5811   22.8404    3.0799 C.ar      12 UNK        -0.0782 
     15 C15        31.4167   23.8469    5.3847 C.3       12 UNK         0.0230 
     16 S16        29.8472   24.7614    5.2797 S.3       12 UNK        -0.2608 
     17 C17        30.3931   26.4886    5.4989 C.3       12 UNK        -0.0989 
     18 CA         29.7151   27.4864    4.5274 C.3       5 UNK         0.0716 
     19 N          30.0565   27.2006    3.1295 N.am      5 UNK        -0.4135 
     20 C          29.7511   27.9479    2.0603 C.2       4 UNK         0.5031 
     21 O          28.9314   28.8656    2.0731 O.2       4 UNK        -0.5229 
     22 CA         30.5021   27.6482    0.7574 C.3       4 UNK         0.0329 
     23 CB         31.6118   26.5864    0.8863 C.3       4 UNK        -0.2001 
     24 N          29.5535   27.2464   -0.2749 N.am      4 UNK        -0.4303 
     25 C          29.6658   27.5537   -1.5751 C.2       3 UNK         0.5044 
     26 O          30.5621   28.2667   -2.0290 O.2       3 UNK        -0.5152 
     27 CA         28.6437   26.9469   -2.5583 C.3       3 UNK         0.0319 
     28 CB         29.3437   25.9909   -3.5400 C.3       3 UNK        -0.2001 
     29 N          27.5620   26.2185   -1.8956 N.am      3 UNK        -0.4354 
     30 C          26.4782   26.7845   -1.3496 C.2       2 UNK         0.4964 
     31 O          26.2208   27.9843   -1.4281 O.2       2 UNK        -0.5047 
     32 CA         25.5308   25.8579   -0.5671 C.3       2 UNK         0.0288 
     33 CB         24.3296   25.4567   -1.4383 C.3       2 UNK        -0.2113 
     34 N          26.1784   24.6446   -0.0485 N.am      2 UNK        -0.4145 
     35 C          27.1438   24.6240    0.8824 C.2       1 UNK         0.5006 
     36 O          27.6010   25.6373    1.4199 O.2       1 UNK        -0.5103 
     37 C          28.2195   27.6922    4.8596 C.2       5 UNK         0.5055 
     38 O          27.9320   28.3114    5.8861 O.2       5 UNK        -0.5220 
     39 N          27.2940   27.1943    4.0260 N.am      6 UNK        -0.4450 
     40 CA         25.8569   27.4155    4.2168 C.3       6 UNK         0.0367 
     41 CB         25.0628   26.2593    3.5920 C.3       6 UNK        -0.1929 
     42 C          25.3672   28.7724    3.6746 C.2       6 UNK         0.5070 
     43 O          24.2517   29.1673    4.0171 O.2       6 UNK        -0.5237 
     44 N          26.1686   29.4542    2.8428 N.am      7 UNK        -0.4739 
     45 CA         25.8047   30.7226    2.2001 C.3       7 UNK         0.0276 
     46 CB         25.6230   30.4868    0.6925 C.3       7 UNK        -0.1927 
     47 C          26.8363   31.8352    2.4389 C.2       7 UNK         0.5013 
     48 O          26.4403   32.9916    2.5939 O.2       7 UNK        -0.5193 
     49 N          28.1261   31.4851    2.4454 N.am      8 UNK        -0.4253 
     50 CA         29.2605   32.3934    2.6004 C.3       8 UNK         0.0242 
     51 CB         30.1481   32.2633    1.3487 C.3       8 UNK        -0.2000 
     52 C          30.0569   32.0285    3.8597 C.2       8 UNK         0.4948 
     53 O          29.8084   30.9901    4.4774 O.2       8 UNK        -0.5275 
     54 N          31.0436   32.8661    4.2043 N.am      9 UNK        -0.4246 
     55 CA         31.9979   32.6468    5.2974 C.3       9 UNK         0.0261 
     56 CB         32.6441   33.9938    5.6735 C.3       9 UNK        -0.1959 
     57 C          33.0407   31.5655    4.9390 C.2       9 UNK         0.5033 
     58 O          34.2351   31.8602    4.8584 O.2       9 UNK        -0.5390 
     59 N          32.5493   30.3403    4.7096 N.am      10 UNK        -0.4215 
     60 CA         33.2651   29.1564    4.2239 C.3       10 UNK         0.0240 
     61 CB         34.3105   28.6751    5.2562 C.3       10 UNK        -0.1982 
     62 C          33.8239   29.3573    2.8003 C.2       10 UNK         0.4970 
     63 O          33.2536   30.1257    2.0227 O.2       10 UNK        -0.4916 
     64 N          34.8871   28.6197    2.4680 N.am      11 UNK        -0.4279 
     65 CA         35.5861   28.6835    1.1792 C.3       11 UNK         0.1003 
     66 C          36.5969   29.8590    1.1509 C.2       11 UNK         0.5709 
     67 N          36.7306   30.5376    0.0196 N.am      11 UNK        -0.7358 
     68 O          37.2896   30.1329    2.1297 O.2       11 UNK        -0.4999 
     69 C69        36.2856   27.3380    0.8551 C.3       12 UNK        -0.0954 
     70 S70        35.0745   26.0005    0.5979 S.3       12 UNK        -0.2268 
     71 C71        35.1470   25.1134    2.1886 C.3       12 UNK         0.0203 
     72 H72        26.8260   23.6585    5.4203 H         1 UNK         0.0888 
     73 H73        26.3005   21.9719    5.4090 H         1 UNK         0.0888 
     74 H74        28.0029   22.3591    5.1807 H         1 UNK         0.0888 
     75 H75        28.6818   23.3439    3.1211 H         1 UNK         0.3017 
     76 H76        27.0779   22.4746    0.8390 H         1 UNK         0.0873 
     77 H77        29.8137   23.8396    0.9100 H         1 UNK         0.0745 
     78 H78        29.0440   23.2105   -0.5241 H         1 UNK         0.0745 
     79 H79        31.8441   22.1593   -0.2386 H         1 UNK         0.0705 
     80 H80        32.1638   20.8125    0.8286 H         1 UNK         0.0705 
     81 H81        33.8279   23.3293    0.5881 H         1 UNK         0.1334 
     82 H82        33.6350   25.1617    4.4615 H         1 UNK         0.1417 
     83 H83        30.7114   22.2502    3.3309 H         1 UNK         0.1562 
     84 H84        32.0765   24.3137    6.1177 H         1 UNK         0.0748 
     85 H85        31.2095   22.8451    5.7641 H         1 UNK         0.0748 
     86 H86        31.4754   26.5422    5.3766 H         1 UNK         0.0940 
     87 H87        30.2085   26.7777    6.5356 H         1 UNK         0.0940 
     88 H88        30.1681   28.4562    4.7308 H         1 UNK         0.0703 
     89 H89        30.6720   26.4129    2.9913 H         1 UNK         0.3081 
     90 H90        30.9734   28.5913    0.4717 H         1 UNK         0.0719 
     91 H91        32.1380   26.4581   -0.0596 H         1 UNK         0.0809 
     92 H92        32.3587   26.8821    1.6233 H         1 UNK         0.0809 
     93 H93        31.2228   25.6116    1.1760 H         1 UNK         0.0809 
     94 H94        28.7516   26.7183    0.0509 H         1 UNK         0.2990 
     95 H95        28.2161   27.7717   -3.1326 H         1 UNK         0.0690 
     96 H96        30.1281   26.5059   -4.0965 H         1 UNK         0.0788 
     97 H97        28.6426   25.5894   -4.2719 H         1 UNK         0.0788 
     98 H98        29.8099   25.1510   -3.0231 H         1 UNK         0.0788 
     99 H99        27.6772   25.2201   -1.8064 H         1 UNK         0.2993 
    100 H100       25.1574   26.4356    0.2793 H         1 UNK         0.0949 
    101 H101       24.6350   24.8607   -2.2993 H         1 UNK         0.0767 
    102 H102       23.6018   24.8783   -0.8686 H         1 UNK         0.0767 
    103 H103       23.8119   26.3384   -1.8193 H         1 UNK         0.0767 
    104 H104       25.8551   23.7677   -0.4325 H         1 UNK         0.3013 
    105 H105       27.5837   26.7046    3.1843 H         1 UNK         0.3121 
    106 H106       25.6379   27.4074    5.2869 H         1 UNK         0.0774 
    107 H107       25.2110   26.2035    2.5169 H         1 UNK         0.0815 
    108 H108       23.9928   26.3817    3.7647 H         1 UNK         0.0815 
    109 H109       25.3494   25.3024    4.0247 H         1 UNK         0.0815 
    110 H110       27.0881   29.0784    2.6272 H         1 UNK         0.2987 
    111 H111       24.8563   31.0916    2.5967 H         1 UNK         0.0949 
    112 H112       26.5447   30.1320    0.2289 H         1 UNK         0.0806 
    113 H113       24.8459   29.7478    0.4965 H         1 UNK         0.0806 
    114 H114       25.3332   31.4065    0.1827 H         1 UNK         0.0806 
    115 H115       28.3782   30.5007    2.3612 H         1 UNK         0.3010 
    116 H116       28.9218   33.4269    2.6980 H         1 UNK         0.0829 
    117 H117       29.5860   32.4846    0.4412 H         1 UNK         0.0813 
    118 H118       30.9909   32.9546    1.3807 H         1 UNK         0.0813 
    119 H119       30.5573   31.2563    1.2490 H         1 UNK         0.0813 
    120 H120       31.2071   33.6802    3.6292 H         1 UNK         0.3038 
    121 H121       31.4493   32.2889    6.1716 H         1 UNK         0.0769 
    122 H122       33.2034   34.4214    4.8403 H         1 UNK         0.0811 
    123 H123       33.3395   33.8739    6.5054 H         1 UNK         0.0811 
    124 H124       31.8940   34.7214    5.9838 H         1 UNK         0.0811 
    125 H125       31.5334   30.2739    4.7234 H         1 UNK         0.3204 
    126 H126       32.5162   28.3718    4.1308 H         1 UNK         0.0748 
    127 H127       34.6826   27.6784    5.0175 H         1 UNK         0.0771 
    128 H128       35.1684   29.3468    5.3095 H         1 UNK         0.0771 
    129 H129       33.8763   28.6156    6.2544 H         1 UNK         0.0771 
    130 H130       35.3276   28.0567    3.1782 H         1 UNK         0.2980 
    131 H131       34.8440   28.8662    0.3986 H         1 UNK         0.0545 
    132 H132       37.3949   31.2946   -0.0215 H         1 UNK         0.3459 
    133 H133       36.1774   30.3124   -0.7927 H         1 UNK         0.3459 
    134 H134       36.8669   27.4240   -0.0649 H         1 UNK         0.0616 
    135 H135       36.9942   27.0599    1.6375 H         1 UNK         0.0616 
    136 H136       35.3455   25.8266    2.9889 H         1 UNK         0.0634 
    137 H137       35.9918   24.4238    2.1720 H         1 UNK         0.0634 
@<TRIPOS>BOND
     1    1    2 1    
     2    1   72 1    
     3    1   73 1    
     4    1   74 1    
     5    2    3 2    
     6    2    4 am   BACKBONE|DICT|INTERRES
     7    4    5 1    
     8    4   75 1    
     9    5    6 1    
    10    5   35 1    
    11    5   76 1    
    12    6    7 1    
    13    6   77 1    
    14    6   78 1    
    15    7    8 1    
    16    8    9 1    
    17    8   79 1    
    18    8   80 1    
    19    9   10 ar   
    20    9   14 ar   
    21   10   11 ar   
    22   10   81 1    
    23   11   12 ar   
    24   11   71 1    
    25   12   13 ar   
    26   12   82 1    
    27   13   14 ar   
    28   13   15 1    
    29   14   83 1    
    30   15   16 1    
    31   15   84 1    
    32   15   85 1    
    33   16   17 1    
    34   17   18 1    
    35   17   86 1    
    36   17   87 1    
    37   18   19 1    
    38   18   37 1    
    39   18   88 1    
    40   19   20 am   BACKBONE|DICT|INTERRES
    41   19   89 1    
    42   20   21 2    
    43   20   22 1    
    44   22   23 1    
    45   22   24 1    
    46   22   90 1    
    47   23   91 1    
    48   23   92 1    
    49   23   93 1    
    50   24   25 am   BACKBONE|DICT|INTERRES
    51   24   94 1    
    52   25   26 2    
    53   25   27 1    
    54   27   28 1    
    55   27   29 1    
    56   27   95 1    
    57   28   96 1    
    58   28   97 1    
    59   28   98 1    
    60   29   30 am   BACKBONE|DICT|INTERRES
    61   29   99 1    
    62   30   31 2    
    63   30   32 1    
    64   32   33 1    
    65   32   34 1    
    66   32  100 1    
    67   33  101 1    
    68   33  102 1    
    69   33  103 1    
    70   34   35 am   BACKBONE|DICT|INTERRES
    71   34  104 1    
    72   35   36 2    
    73   37   38 2    
    74   37   39 am   BACKBONE|DICT|INTERRES
    75   39   40 1    
    76   39  105 1    
    77   40   41 1    
    78   40   42 1    
    79   40  106 1    
    80   41  107 1    
    81   41  108 1    
    82   41  109 1    
    83   42   43 2    
    84   42   44 am   BACKBONE|DICT|INTERRES
    85   44   45 1    
    86   44  110 1    
    87   45   46 1    
    88   45   47 1    
    89   45  111 1    
    90   46  112 1    
    91   46  113 1    
    92   46  114 1    
    93   47   48 2    
    94   47   49 am   BACKBONE|DICT|INTERRES
    95   49   50 1    
    96   49  115 1    
    97   50   51 1    
    98   50   52 1    
    99   50  116 1    
   100   51  117 1    
   101   51  118 1    
   102   51  119 1    
   103   52   53 2    
   104   52   54 am   BACKBONE|DICT|INTERRES
   105   54   55 1    
   106   54  120 1    
   107   55   56 1    
   108   55   57 1    
   109   55  121 1    
   110   56  122 1    
   111   56  123 1    
   112   56  124 1    
   113   57   58 2    
   114   57   59 am   BACKBONE|DICT|INTERRES
   115   59   60 1    
   116   59  125 1    
   117   60   61 1    
   118   60   62 1    
   119   60  126 1    
   120   61  127 1    
   121   61  128 1    
   122   61  129 1    
   123   62   63 2    
   124   62   64 am   BACKBONE|DICT|INTERRES
   125   64   65 1    
   126   64  130 1    
   127   65   66 1    
   128   65   69 1    
   129   65  131 1    
   130   66   67 am   BACKBONE|DICT|INTERRES
   131   66   68 2    
   132   67  132 1    
   133   67  133 1    
   134   69   70 1    
   135   69  134 1    
   136   69  135 1    
   137   70   71 1    
   138   71  136 1    
   139   71  137 1    
@<TRIPOS>SUBSTRUCTURE
     1 UNK         1 GROUP             0       ****    0 ROOT    
