@<TRIPOS>MOLECULE
3R136
137   139    1
SMALL
USER_CHARGES


@<TRIPOS>ATOM
      1 CA         32.6352   23.7420   -1.9308 C.3       0 UNK        -0.1979 
      2 C          31.4642   24.5875   -1.4536 C.2       0 UNK         0.4864 
      3 O          31.3632   25.7565   -1.8246 O.2       0 UNK        -0.5359 
      4 N          30.5778   24.0053   -0.6334 N.am      1 UNK        -0.4318 
      5 CA         29.4165   24.6818   -0.0374 C.3       1 UNK         0.0824 
      6 C6         28.8588   23.9261    1.1940 C.3       12 UNK        -0.0944 
      7 S7         30.1394   23.5525    2.4367 S.3       12 UNK        -0.2672 
      8 C8         29.1515   23.3958    3.9593 C.3       12 UNK         0.0333 
      9 C9         29.1922   24.6580    4.8110 C.ar      12 UNK        -0.0807 
     10 C10        30.3988   25.0672    5.3868 C.ar      12 UNK        -0.0894 
     11 C11        30.4484   26.1867    6.2211 C.ar      12 UNK        -0.0804 
     12 C12        29.2758   26.9041    6.4756 C.ar      12 UNK        -0.0824 
     13 C13        28.0550   26.4987    5.9231 C.ar      12 UNK        -0.0762 
     14 C14        28.0227   25.3754    5.0853 C.ar      12 UNK        -0.0782 
     15 C15        26.7762   27.2372    6.3189 C.3       12 UNK         0.0230 
     16 S16        25.5838   27.4846    4.9606 S.3       12 UNK        -0.2608 
     17 C17        26.5155   28.5884    3.8500 C.3       12 UNK        -0.0989 
     18 CA         26.9339   27.8990    2.5223 C.3       5 UNK         0.0716 
     19 N          25.7886   27.5216    1.6927 N.am      5 UNK        -0.4135 
     20 C          25.2758   26.2904    1.5939 C.2       4 UNK         0.5031 
     21 O          25.6822   25.3216    2.2388 O.2       4 UNK        -0.5229 
     22 CA         24.1350   26.0796    0.5875 C.3       4 UNK         0.0329 
     23 CB         23.8182   27.3019   -0.3012 C.3       4 UNK        -0.2001 
     24 N          24.5161   24.9548   -0.2560 N.am      4 UNK        -0.4303 
     25 C          23.7119   23.9780   -0.6884 C.2       3 UNK         0.5044 
     26 O          22.5032   23.9355   -0.4507 O.2       3 UNK        -0.5152 
     27 CA         24.3710   22.8425   -1.5041 C.3       3 UNK         0.0319 
     28 CB         23.4237   22.2510   -2.5704 C.3       3 UNK        -0.2001 
     29 N          25.6707   23.2049   -2.0917 N.am      3 UNK        -0.4354 
     30 C          25.9117   24.1579   -3.0069 C.2       2 UNK         0.4964 
     31 O          25.0324   24.8320   -3.5456 O.2       2 UNK        -0.5047 
     32 CA         27.3935   24.4101   -3.3527 C.3       2 UNK         0.0288 
     33 CB         27.6151   25.7718   -4.0449 C.3       2 UNK        -0.2113 
     34 N          28.3021   24.2677   -2.2040 N.am      2 UNK        -0.4145 
     35 C          28.2882   24.9639   -1.0539 C.2       1 UNK         0.5006 
     36 O          27.4331   25.8047   -0.7684 O.2       1 UNK        -0.5103 
     37 C          27.8916   28.7703    1.6886 C.2       5 UNK         0.5055 
     38 O          28.4138   29.7616    2.1984 O.2       5 UNK        -0.5220 
     39 N          28.1373   28.4008    0.4204 N.am      6 UNK        -0.4450 
     40 CA         29.0427   29.1369   -0.4783 C.3       6 UNK         0.0367 
     41 CB         28.9079   28.5989   -1.9104 C.3       6 UNK        -0.1929 
     42 C          30.5183   29.1251   -0.0280 C.2       6 UNK         0.5070 
     43 O          31.2883   29.9897   -0.4461 O.2       6 UNK        -0.5237 
     44 N          30.8749   28.1722    0.8428 N.am      7 UNK        -0.4739 
     45 CA         32.1850   28.0490    1.4773 C.3       7 UNK         0.0276 
     46 CB         32.3326   26.6222    2.0312 C.3       7 UNK        -0.1927 
     47 C          32.4295   29.0764    2.5971 C.2       7 UNK         0.5013 
     48 O          33.5797   29.2196    3.0118 O.2       7 UNK        -0.5193 
     49 N          31.3801   29.7693    3.0768 N.am      8 UNK        -0.4253 
     50 CA         31.4041   30.6607    4.2479 C.3       8 UNK         0.0242 
     51 CB         30.0048   31.2435    4.4930 C.3       8 UNK        -0.2000 
     52 C          32.4522   31.7873    4.2129 C.2       8 UNK         0.4948 
     53 O          32.8711   32.2412    5.2773 O.2       8 UNK        -0.5275 
     54 N          32.9174   32.1738    3.0175 N.am      9 UNK        -0.4246 
     55 CA         34.0652   33.0652    2.8251 C.3       9 UNK         0.0261 
     56 CB         34.2204   33.3669    1.3256 C.3       9 UNK        -0.1959 
     57 C          35.3885   32.5172    3.4036 C.2       9 UNK         0.5033 
     58 O          36.2685   33.3165    3.7276 O.2       9 UNK        -0.5390 
     59 N          35.5086   31.1868    3.5242 N.am      10 UNK        -0.4215 
     60 CA         36.6789   30.4869    4.0537 C.3       10 UNK         0.0240 
     61 CB         37.1238   29.4373    3.0185 C.3       10 UNK        -0.1982 
     62 C          36.4235   29.8113    5.4153 C.2       10 UNK         0.4970 
     63 O          37.4008   29.3636    6.0274 O.2       10 UNK        -0.4916 
     64 N          35.1613   29.7213    5.8697 N.am      11 UNK        -0.4279 
     65 CA         34.7796   28.9760    7.0851 C.3       11 UNK         0.1003 
     66 C          33.7492   29.6756    8.0152 C.2       11 UNK         0.5709 
     67 N          33.2365   30.8576    7.7025 N.am      11 UNK        -0.7358 
     68 O          33.4264   29.1442    9.0752 O.2       11 UNK        -0.4999 
     69 C69        34.4159   27.4977    6.7724 C.3       12 UNK        -0.0954 
     70 S70        32.9385   27.2947    5.7178 S.3       12 UNK        -0.2268 
     71 C71        31.7572   26.5751    6.8953 C.3       12 UNK         0.0203 
     72 H72        32.5995   22.7303   -1.5271 H         1 UNK         0.0888 
     73 H73        33.5754   24.1975   -1.6210 H         1 UNK         0.0888 
     74 H74        32.6308   23.6746   -3.0183 H         1 UNK         0.0888 
     75 H75        30.7264   23.0513   -0.3346 H         1 UNK         0.3017 
     76 H76        29.7594   25.6567    0.3099 H         1 UNK         0.0873 
     77 H77        28.3880   22.9868    0.8973 H         1 UNK         0.0745 
     78 H78        28.0834   24.5232    1.6756 H         1 UNK         0.0745 
     79 H79        28.1254   23.1188    3.7116 H         1 UNK         0.0705 
     80 H80        29.5529   22.5686    4.5464 H         1 UNK         0.0705 
     81 H81        31.3016   24.5026    5.1960 H         1 UNK         0.1334 
     82 H82        29.3083   27.7584    7.1382 H         1 UNK         0.1417 
     83 H83        27.0812   25.0457    4.6658 H         1 UNK         0.1562 
     84 H84        27.0119   28.2114    6.7507 H         1 UNK         0.0748 
     85 H85        26.2839   26.6665    7.1071 H         1 UNK         0.0748 
     86 H86        27.3919   28.9511    4.3896 H         1 UNK         0.0940 
     87 H87        25.9044   29.4695    3.6463 H         1 UNK         0.0940 
     88 H88        27.5126   27.0075    2.7721 H         1 UNK         0.0703 
     89 H89        25.4037   28.2537    1.1129 H         1 UNK         0.3081 
     90 H90        23.2467   25.8261    1.1696 H         1 UNK         0.0719 
     91 H91        24.6800   27.6065   -0.8973 H         1 UNK         0.0809 
     92 H92        23.0083   27.0756   -0.9952 H         1 UNK         0.0809 
     93 H93        23.4927   28.1565    0.2933 H         1 UNK         0.0809 
     94 H94        25.5039   24.9103   -0.4789 H         1 UNK         0.2990 
     95 H95        24.5822   22.0509   -0.7837 H         1 UNK         0.0690 
     96 H96        23.9042   21.4457   -3.1259 H         1 UNK         0.0788 
     97 H97        23.0968   23.0053   -3.2866 H         1 UNK         0.0788 
     98 H98        22.5275   21.8337   -2.1098 H         1 UNK         0.0788 
     99 H99        26.4672   22.7074   -1.7184 H         1 UNK         0.2993 
    100 H100       27.6723   23.6308   -4.0638 H         1 UNK         0.0949 
    101 H101       27.0840   25.8185   -4.9965 H         1 UNK         0.0767 
    102 H102       27.2520   26.5962   -3.4313 H         1 UNK         0.0767 
    103 H103       28.6707   25.9468   -4.2537 H         1 UNK         0.0767 
    104 H104       29.0470   23.5951   -2.3218 H         1 UNK         0.3013 
    105 H105       27.7027   27.5600    0.0468 H         1 UNK         0.3121 
    106 H106       28.7207   30.1806   -0.4830 H         1 UNK         0.0774 
    107 H107       27.8732   28.6295   -2.2510 H         1 UNK         0.0815 
    108 H108       29.2642   27.5724   -1.9923 H         1 UNK         0.0815 
    109 H109       29.4959   29.1980   -2.6068 H         1 UNK         0.0815 
    110 H110       30.1680   27.5184    1.1396 H         1 UNK         0.2987 
    111 H111       32.9542   28.2059    0.7178 H         1 UNK         0.0949 
    112 H112       31.5809   26.4033    2.7912 H         1 UNK         0.0806 
    113 H113       32.2425   25.8754    1.2429 H         1 UNK         0.0806 
    114 H114       33.3098   26.4822    2.4958 H         1 UNK         0.0806 
    115 H115       30.4701   29.6210    2.6543 H         1 UNK         0.3010 
    116 H116       31.6548   30.0351    5.1068 H         1 UNK         0.0829 
    117 H117       29.2810   30.4560    4.7003 H         1 UNK         0.0813 
    118 H118       30.0019   31.9138    5.3539 H         1 UNK         0.0813 
    119 H119       29.6486   31.8124    3.6332 H         1 UNK         0.0813 
    120 H120       32.5245   31.7452    2.1912 H         1 UNK         0.3038 
    121 H121       33.8471   34.0013    3.3437 H         1 UNK         0.0769 
    122 H122       34.4151   32.4610    0.7498 H         1 UNK         0.0811 
    123 H123       35.0522   34.0505    1.1490 H         1 UNK         0.0811 
    124 H124       33.3250   33.8381    0.9197 H         1 UNK         0.0811 
    125 H125       34.7362   30.5876    3.2320 H         1 UNK         0.3204 
    126 H126       37.5046   31.1870    4.1993 H         1 UNK         0.0748 
    127 H127       37.3627   29.9020    2.0612 H         1 UNK         0.0771 
    128 H128       38.0178   28.9086    3.3524 H         1 UNK         0.0771 
    129 H129       36.3481   28.6895    2.8442 H         1 UNK         0.0771 
    130 H130       34.3986   30.0942    5.3158 H         1 UNK         0.2980 
    131 H131       35.6601   28.9337    7.7285 H         1 UNK         0.0545 
    132 H132       32.5880   31.2782    8.3479 H         1 UNK         0.3459 
    133 H133       33.4301   31.3331    6.8272 H         1 UNK         0.3459 
    134 H134       35.2518   27.0206    6.2589 H         1 UNK         0.0616 
    135 H135       34.2885   26.9330    7.6976 H         1 UNK         0.0616 
    136 H136       31.5807   27.2868    7.7032 H         1 UNK         0.0634 
    137 H137       32.1991   25.6888    7.3530 H         1 UNK         0.0634 
@<TRIPOS>BOND
     1    1    2 1    
     2    1   72 1    
     3    1   73 1    
     4    1   74 1    
     5    2    3 2    
     6    2    4 am   BACKBONE|DICT|INTERRES
     7    4    5 1    
     8    4   75 1    
     9    5    6 1    
    10    5   35 1    
    11    5   76 1    
    12    6    7 1    
    13    6   77 1    
    14    6   78 1    
    15    7    8 1    
    16    8    9 1    
    17    8   79 1    
    18    8   80 1    
    19    9   10 ar   
    20    9   14 ar   
    21   10   11 ar   
    22   10   81 1    
    23   11   12 ar   
    24   11   71 1    
    25   12   13 ar   
    26   12   82 1    
    27   13   14 ar   
    28   13   15 1    
    29   14   83 1    
    30   15   16 1    
    31   15   84 1    
    32   15   85 1    
    33   16   17 1    
    34   17   18 1    
    35   17   86 1    
    36   17   87 1    
    37   18   19 1    
    38   18   37 1    
    39   18   88 1    
    40   19   20 am   BACKBONE|DICT|INTERRES
    41   19   89 1    
    42   20   21 2    
    43   20   22 1    
    44   22   23 1    
    45   22   24 1    
    46   22   90 1    
    47   23   91 1    
    48   23   92 1    
    49   23   93 1    
    50   24   25 am   BACKBONE|DICT|INTERRES
    51   24   94 1    
    52   25   26 2    
    53   25   27 1    
    54   27   28 1    
    55   27   29 1    
    56   27   95 1    
    57   28   96 1    
    58   28   97 1    
    59   28   98 1    
    60   29   30 am   BACKBONE|DICT|INTERRES
    61   29   99 1    
    62   30   31 2    
    63   30   32 1    
    64   32   33 1    
    65   32   34 1    
    66   32  100 1    
    67   33  101 1    
    68   33  102 1    
    69   33  103 1    
    70   34   35 am   BACKBONE|DICT|INTERRES
    71   34  104 1    
    72   35   36 2    
    73   37   38 2    
    74   37   39 am   BACKBONE|DICT|INTERRES
    75   39   40 1    
    76   39  105 1    
    77   40   41 1    
    78   40   42 1    
    79   40  106 1    
    80   41  107 1    
    81   41  108 1    
    82   41  109 1    
    83   42   43 2    
    84   42   44 am   BACKBONE|DICT|INTERRES
    85   44   45 1    
    86   44  110 1    
    87   45   46 1    
    88   45   47 1    
    89   45  111 1    
    90   46  112 1    
    91   46  113 1    
    92   46  114 1    
    93   47   48 2    
    94   47   49 am   BACKBONE|DICT|INTERRES
    95   49   50 1    
    96   49  115 1    
    97   50   51 1    
    98   50   52 1    
    99   50  116 1    
   100   51  117 1    
   101   51  118 1    
   102   51  119 1    
   103   52   53 2    
   104   52   54 am   BACKBONE|DICT|INTERRES
   105   54   55 1    
   106   54  120 1    
   107   55   56 1    
   108   55   57 1    
   109   55  121 1    
   110   56  122 1    
   111   56  123 1    
   112   56  124 1    
   113   57   58 2    
   114   57   59 am   BACKBONE|DICT|INTERRES
   115   59   60 1    
   116   59  125 1    
   117   60   61 1    
   118   60   62 1    
   119   60  126 1    
   120   61  127 1    
   121   61  128 1    
   122   61  129 1    
   123   62   63 2    
   124   62   64 am   BACKBONE|DICT|INTERRES
   125   64   65 1    
   126   64  130 1    
   127   65   66 1    
   128   65   69 1    
   129   65  131 1    
   130   66   67 am   BACKBONE|DICT|INTERRES
   131   66   68 2    
   132   67  132 1    
   133   67  133 1    
   134   69   70 1    
   135   69  134 1    
   136   69  135 1    
   137   70   71 1    
   138   71  136 1    
   139   71  137 1    
@<TRIPOS>SUBSTRUCTURE
     1 UNK         1 GROUP             0       ****    0 ROOT    
