@<TRIPOS>MOLECULE
3R136
137   139    1
SMALL
USER_CHARGES


@<TRIPOS>ATOM
      1 CA         26.2469   22.6494   -3.1970 C.3       0 UNK        -0.1979 
      2 C          27.6961   22.4871   -2.7626 C.2       0 UNK         0.4864 
      3 O          28.6005   22.5959   -3.5914 O.2       0 UNK        -0.5359 
      4 N          27.9237   22.2249   -1.4689 N.am      1 UNK        -0.4318 
      5 CA         29.2469   22.1347   -0.8470 C.3       1 UNK         0.0824 
      6 C6         29.1555   21.4599    0.5424 C.3       12 UNK        -0.0944 
      7 S7         30.6984   20.6274    1.0632 S.3       12 UNK        -0.2672 
      8 C8         31.6440   21.9300    1.9404 C.3       12 UNK         0.0333 
      9 C9         31.0359   22.4948    3.2282 C.ar      12 UNK        -0.0807 
     10 C10        31.7338   23.5039    3.9011 C.ar      12 UNK        -0.0894 
     11 C11        31.2016   24.1053    5.0464 C.ar      12 UNK        -0.0804 
     12 C12        29.9419   23.7162    5.5082 C.ar      12 UNK        -0.0824 
     13 C13        29.2288   22.7188    4.8400 C.ar      12 UNK        -0.0762 
     14 C14        29.8018   22.0775    3.7409 C.ar      12 UNK        -0.0782 
     15 C15        27.8062   22.3724    5.2425 C.3       12 UNK         0.0230 
     16 S16        26.6263   23.0543    4.0290 S.3       12 UNK        -0.2608 
     17 C17        26.6475   24.8335    4.4420 C.3       12 UNK        -0.0989 
     18 CA         27.5863   25.7116    3.5566 C.3       5 UNK         0.0716 
     19 N          27.3717   25.5586    2.1083 N.am      5 UNK        -0.4135 
     20 C          26.2395   25.7857    1.4262 C.2       4 UNK         0.5031 
     21 O          25.1901   26.1830    1.9347 O.2       4 UNK        -0.5229 
     22 CA         26.3310   25.5586   -0.0933 C.3       4 UNK         0.0329 
     23 CB         25.0155   25.8505   -0.8465 C.3       4 UNK        -0.2001 
     24 N          27.4633   26.2888   -0.6768 N.am      4 UNK        -0.4303 
     25 C          27.6401   27.6165   -0.7512 C.2       3 UNK         0.5044 
     26 O          26.7994   28.4338   -0.3785 O.2       3 UNK        -0.5152 
     27 CA         28.9902   28.1234   -1.3045 C.3       3 UNK         0.0319 
     28 CB         29.4530   29.4083   -0.5951 C.3       3 UNK        -0.2001 
     29 N          30.0536   27.1178   -1.2060 N.am      3 UNK        -0.4354 
     30 C          30.3832   26.2443   -2.1663 C.2       2 UNK         0.4964 
     31 O          29.8603   26.2236   -3.2804 O.2       2 UNK        -0.5047 
     32 CA         31.4368   25.1741   -1.8173 C.3       2 UNK         0.0288 
     33 CB         32.3265   25.5240   -0.6021 C.3       2 UNK        -0.2113 
     34 N          30.8058   23.8615   -1.6392 N.am      2 UNK        -0.4145 
     35 C          29.8526   23.5476   -0.7497 C.2       1 UNK         0.5006 
     36 O          29.4126   24.3315    0.0974 O.2       1 UNK        -0.5103 
     37 C          27.5710   27.1815    4.0501 C.2       5 UNK         0.5055 
     38 O          27.6389   27.3964    5.2621 O.2       5 UNK        -0.5220 
     39 N          27.4629   28.1704    3.1490 N.am      6 UNK        -0.4450 
     40 CA         27.3778   29.5894    3.4980 C.3       6 UNK         0.0367 
     41 CB         26.8676   30.3938    2.2926 C.3       6 UNK        -0.1929 
     42 C          28.7268   30.1382    3.9865 C.2       6 UNK         0.5070 
     43 O          29.7112   30.0867    3.2463 O.2       6 UNK        -0.5237 
     44 N          28.7318   30.6849    5.2083 N.am      7 UNK        -0.4739 
     45 CA         29.8769   31.3677    5.8123 C.3       7 UNK         0.0276 
     46 CB         29.5799   31.6247    7.2983 C.3       7 UNK        -0.1927 
     47 C          30.2038   32.6859    5.0894 C.2       7 UNK         0.5013 
     48 O          29.3214   33.2819    4.4658 O.2       7 UNK        -0.5193 
     49 N          31.4722   33.1070    5.1754 N.am      8 UNK        -0.4253 
     50 CA         32.1024   34.2660    4.5223 C.3       8 UNK         0.0242 
     51 CB         31.4059   35.5934    4.8828 C.3       8 UNK        -0.2000 
     52 C          32.2632   34.1043    2.9994 C.2       8 UNK         0.4948 
     53 O          33.3271   34.4337    2.4737 O.2       8 UNK        -0.5275 
     54 N          31.2369   33.5697    2.3240 N.am      9 UNK        -0.4246 
     55 CA         31.2913   33.1137    0.9328 C.3       9 UNK         0.0261 
     56 CB         29.8675   32.8153    0.4387 C.3       9 UNK        -0.1959 
     57 C          32.2010   31.8814    0.7719 C.2       9 UNK         0.5033 
     58 O          32.9460   31.7976   -0.2054 O.2       9 UNK        -0.5390 
     59 N          32.1484   30.9775    1.7551 N.am      10 UNK        -0.4215 
     60 CA         33.0522   29.8510    1.9514 C.3       10 UNK         0.0240 
     61 CB         32.4596   28.5941    1.2847 C.3       10 UNK        -0.1982 
     62 C          33.2770   29.6723    3.4627 C.2       10 UNK         0.4970 
     63 O          32.9303   30.5613    4.2461 O.2       10 UNK        -0.4916 
     64 N          33.8442   28.5221    3.8440 N.am      11 UNK        -0.4279 
     65 CA         34.0657   28.0913    5.2344 C.3       11 UNK         0.1003 
     66 C          35.1158   28.9658    5.9873 C.2       11 UNK         0.5709 
     67 N          35.1269   28.9602    7.3143 N.am      11 UNK        -0.7358 
     68 O          35.9670   29.6119    5.3776 O.2       11 UNK        -0.4999 
     69 C69        32.7335   27.8779    6.0209 C.3       12 UNK        -0.0954 
     70 S70        31.5296   26.8353    5.1286 S.3       12 UNK        -0.2268 
     71 C71        31.9749   25.1955    5.7676 C.3       12 UNK         0.0203 
     72 H72        25.9960   21.9059   -3.9530 H         1 UNK         0.0888 
     73 H73        25.5545   22.5332   -2.3634 H         1 UNK         0.0888 
     74 H74        26.0946   23.6388   -3.6275 H         1 UNK         0.0888 
     75 H75        27.1401   22.1383   -0.8381 H         1 UNK         0.3017 
     76 H76        29.8760   21.5168   -1.4919 H         1 UNK         0.0873 
     77 H77        28.7958   22.1595    1.2966 H         1 UNK         0.0745 
     78 H78        28.4026   20.6704    0.5123 H         1 UNK         0.0745 
     79 H79        31.8265   22.7530    1.2487 H         1 UNK         0.0705 
     80 H80        32.6243   21.5165    2.1816 H         1 UNK         0.0705 
     81 H81        32.6923   23.8343    3.5238 H         1 UNK         0.1334 
     82 H82        29.5058   24.2136    6.3640 H         1 UNK         0.1417 
     83 H83        29.2394   21.2901    3.2627 H         1 UNK         0.1562 
     84 H84        27.5740   22.7404    6.2431 H         1 UNK         0.0748 
     85 H85        27.6925   21.2880    5.2794 H         1 UNK         0.0748 
     86 H86        26.9171   24.9303    5.4952 H         1 UNK         0.0940 
     87 H87        25.6207   25.1969    4.3745 H         1 UNK         0.0940 
     88 H88        28.6087   25.3718    3.7213 H         1 UNK         0.0703 
     89 H89        28.1735   25.2217    1.5845 H         1 UNK         0.3081 
     90 H90        26.5496   24.4987   -0.2265 H         1 UNK         0.0719 
     91 H91        24.6918   26.8839   -0.7200 H         1 UNK         0.0809 
     92 H92        25.1192   25.6594   -1.9144 H         1 UNK         0.0809 
     93 H93        24.2097   25.2140   -0.4792 H         1 UNK         0.0809 
     94 H94        28.2574   25.7096   -0.9220 H         1 UNK         0.2990 
     95 H95        28.8218   28.3724   -2.3542 H         1 UNK         0.0690 
     96 H96        30.3955   29.7711   -1.0049 H         1 UNK         0.0788 
     97 H97        29.5866   29.2563    0.4766 H         1 UNK         0.0788 
     98 H98        28.7233   30.2081   -0.7245 H         1 UNK         0.0788 
     99 H99        30.5024   27.0213   -0.3065 H         1 UNK         0.2993 
    100 H100       32.0883   25.0928   -2.6890 H         1 UNK         0.0949 
    101 H101       31.7639   25.5986    0.3292 H         1 UNK         0.0767 
    102 H102       33.0959   24.7660   -0.4549 H         1 UNK         0.0767 
    103 H103       32.8427   26.4710   -0.7617 H         1 UNK         0.0767 
    104 H104       31.0378   23.1730   -2.3425 H         1 UNK         0.3013 
    105 H105       27.4065   27.9389    2.1682 H         1 UNK         0.3121 
    106 H106       26.6409   29.6938    4.2975 H         1 UNK         0.0774 
    107 H107       26.7550   31.4482    2.5482 H         1 UNK         0.0815 
    108 H108       27.5558   30.3377    1.4503 H         1 UNK         0.0815 
    109 H109       25.8959   30.0335    1.9545 H         1 UNK         0.0815 
    110 H110       27.8706   30.7018    5.7347 H         1 UNK         0.2987 
    111 H111       30.7393   30.7030    5.7345 H         1 UNK         0.0949 
    112 H112       28.7184   32.2809    7.4300 H         1 UNK         0.0806 
    113 H113       29.3790   30.6940    7.8296 H         1 UNK         0.0806 
    114 H114       30.4289   32.0995    7.7919 H         1 UNK         0.0806 
    115 H115       32.1240   32.4945    5.6490 H         1 UNK         0.3010 
    116 H116       33.1121   34.3107    4.9341 H         1 UNK         0.0829 
    117 H117       31.3276   35.7200    5.9625 H         1 UNK         0.0813 
    118 H118       31.9715   36.4425    4.4969 H         1 UNK         0.0813 
    119 H119       30.4021   35.6606    4.4629 H         1 UNK         0.0813 
    120 H120       30.3914   33.3690    2.8512 H         1 UNK         0.3038 
    121 H121       31.7062   33.9205    0.3250 H         1 UNK         0.0769 
    122 H122       29.8776   32.4896   -0.6021 H         1 UNK         0.0811 
    123 H123       29.2343   33.7009    0.4945 H         1 UNK         0.0811 
    124 H124       29.3943   32.0280    1.0268 H         1 UNK         0.0811 
    125 H125       31.4881   31.1068    2.5154 H         1 UNK         0.3204 
    126 H126       34.0215   30.0784    1.5032 H         1 UNK         0.0748 
    127 H127       33.1433   27.7476    1.3458 H         1 UNK         0.0771 
    128 H128       31.5218   28.2972    1.7571 H         1 UNK         0.0771 
    129 H129       32.2664   28.7684    0.2267 H         1 UNK         0.0771 
    130 H130       34.1306   27.8645    3.1353 H         1 UNK         0.2980 
    131 H131       34.5440   27.1155    5.1480 H         1 UNK         0.0545 
    132 H132       35.8204   29.5088    7.7983 H         1 UNK         0.3459 
    133 H133       34.4565   28.4233    7.8406 H         1 UNK         0.3459 
    134 H134       32.9238   27.4213    6.9931 H         1 UNK         0.0616 
    135 H135       32.2558   28.8362    6.2276 H         1 UNK         0.0616 
    136 H136       33.0474   25.0361    5.6464 H         1 UNK         0.0634 
    137 H137       31.7726   25.1558    6.8391 H         1 UNK         0.0634 
@<TRIPOS>BOND
     1    1    2 1    
     2    1   72 1    
     3    1   73 1    
     4    1   74 1    
     5    2    3 2    
     6    2    4 am   BACKBONE|DICT|INTERRES
     7    4    5 1    
     8    4   75 1    
     9    5    6 1    
    10    5   35 1    
    11    5   76 1    
    12    6    7 1    
    13    6   77 1    
    14    6   78 1    
    15    7    8 1    
    16    8    9 1    
    17    8   79 1    
    18    8   80 1    
    19    9   10 ar   
    20    9   14 ar   
    21   10   11 ar   
    22   10   81 1    
    23   11   12 ar   
    24   11   71 1    
    25   12   13 ar   
    26   12   82 1    
    27   13   14 ar   
    28   13   15 1    
    29   14   83 1    
    30   15   16 1    
    31   15   84 1    
    32   15   85 1    
    33   16   17 1    
    34   17   18 1    
    35   17   86 1    
    36   17   87 1    
    37   18   19 1    
    38   18   37 1    
    39   18   88 1    
    40   19   20 am   BACKBONE|DICT|INTERRES
    41   19   89 1    
    42   20   21 2    
    43   20   22 1    
    44   22   23 1    
    45   22   24 1    
    46   22   90 1    
    47   23   91 1    
    48   23   92 1    
    49   23   93 1    
    50   24   25 am   BACKBONE|DICT|INTERRES
    51   24   94 1    
    52   25   26 2    
    53   25   27 1    
    54   27   28 1    
    55   27   29 1    
    56   27   95 1    
    57   28   96 1    
    58   28   97 1    
    59   28   98 1    
    60   29   30 am   BACKBONE|DICT|INTERRES
    61   29   99 1    
    62   30   31 2    
    63   30   32 1    
    64   32   33 1    
    65   32   34 1    
    66   32  100 1    
    67   33  101 1    
    68   33  102 1    
    69   33  103 1    
    70   34   35 am   BACKBONE|DICT|INTERRES
    71   34  104 1    
    72   35   36 2    
    73   37   38 2    
    74   37   39 am   BACKBONE|DICT|INTERRES
    75   39   40 1    
    76   39  105 1    
    77   40   41 1    
    78   40   42 1    
    79   40  106 1    
    80   41  107 1    
    81   41  108 1    
    82   41  109 1    
    83   42   43 2    
    84   42   44 am   BACKBONE|DICT|INTERRES
    85   44   45 1    
    86   44  110 1    
    87   45   46 1    
    88   45   47 1    
    89   45  111 1    
    90   46  112 1    
    91   46  113 1    
    92   46  114 1    
    93   47   48 2    
    94   47   49 am   BACKBONE|DICT|INTERRES
    95   49   50 1    
    96   49  115 1    
    97   50   51 1    
    98   50   52 1    
    99   50  116 1    
   100   51  117 1    
   101   51  118 1    
   102   51  119 1    
   103   52   53 2    
   104   52   54 am   BACKBONE|DICT|INTERRES
   105   54   55 1    
   106   54  120 1    
   107   55   56 1    
   108   55   57 1    
   109   55  121 1    
   110   56  122 1    
   111   56  123 1    
   112   56  124 1    
   113   57   58 2    
   114   57   59 am   BACKBONE|DICT|INTERRES
   115   59   60 1    
   116   59  125 1    
   117   60   61 1    
   118   60   62 1    
   119   60  126 1    
   120   61  127 1    
   121   61  128 1    
   122   61  129 1    
   123   62   63 2    
   124   62   64 am   BACKBONE|DICT|INTERRES
   125   64   65 1    
   126   64  130 1    
   127   65   66 1    
   128   65   69 1    
   129   65  131 1    
   130   66   67 am   BACKBONE|DICT|INTERRES
   131   66   68 2    
   132   67  132 1    
   133   67  133 1    
   134   69   70 1    
   135   69  134 1    
   136   69  135 1    
   137   70   71 1    
   138   71  136 1    
   139   71  137 1    
@<TRIPOS>SUBSTRUCTURE
     1 UNK         1 GROUP             0       ****    0 ROOT    
