@<TRIPOS>MOLECULE
3R136
137   139    1
SMALL
USER_CHARGES


@<TRIPOS>ATOM
      1 CA         29.5647   21.0462   -2.8614 C.3       0 UNK        -0.1979 
      2 C          29.0783   22.4638   -2.6017 C.2       0 UNK         0.4864 
      3 O          28.3701   23.0334   -3.4343 O.2       0 UNK        -0.5359 
      4 N          29.4353   23.0384   -1.4457 N.am      1 UNK        -0.4318 
      5 CA         29.0977   24.4060   -1.0242 C.3       1 UNK         0.0824 
      6 C6         30.1337   24.9672   -0.0165 C.3       12 UNK        -0.0944 
      7 S7         31.8499   24.8864   -0.6396 S.3       12 UNK        -0.2672 
      8 C8         32.6219   23.6860    0.4979 C.3       12 UNK         0.0333 
      9 C9         32.7924   24.2745    1.8904 C.ar      12 UNK        -0.0807 
     10 C10        33.8192   25.1888    2.1405 C.ar      12 UNK        -0.0894 
     11 C11        33.9267   25.8157    3.3853 C.ar      12 UNK        -0.0804 
     12 C12        33.0111   25.4959    4.3938 C.ar      12 UNK        -0.0824 
     13 C13        32.0019   24.5551    4.1670 C.ar      12 UNK        -0.0762 
     14 C14        31.9043   23.9394    2.9165 C.ar      12 UNK        -0.0782 
     15 C15        31.0004   24.2260    5.2660 C.3       12 UNK         0.0230 
     16 S16        29.2943   24.6961    4.8224 S.3       12 UNK        -0.2608 
     17 C17        29.4434   26.4948    4.5391 C.3       12 UNK        -0.0989 
     18 CA         28.7708   26.9410    3.2115 C.3       5 UNK         0.0716 
     19 N          27.3389   26.6138    3.1308 N.am      5 UNK        -0.4135 
     20 C          26.3731   27.0021    3.9784 C.2       4 UNK         0.5031 
     21 O          26.5778   27.6969    4.9751 O.2       4 UNK        -0.5229 
     22 CA         24.9287   26.5895    3.6219 C.3       4 UNK         0.0329 
     23 CB         23.8739   27.3989    4.4056 C.3       4 UNK        -0.2001 
     24 N          24.6264   26.6460    2.1852 N.am      4 UNK        -0.4303 
     25 C          24.8255   27.6669    1.3384 C.2       3 UNK         0.5044 
     26 O          25.3663   28.7233    1.6648 O.2       3 UNK        -0.5152 
     27 CA         24.3771   27.4533   -0.1239 C.3       3 UNK         0.0319 
     28 CB         24.7519   28.6393   -1.0325 C.3       3 UNK        -0.2001 
     29 N          24.9268   26.2213   -0.6990 N.am      3 UNK        -0.4354 
     30 C          24.4991   24.9806   -0.4274 C.2       2 UNK         0.4964 
     31 O          23.5381   24.7415    0.3053 O.2       2 UNK        -0.5047 
     32 CA         25.2839   23.8039   -1.0287 C.3       2 UNK         0.0288 
     33 CB         24.5859   23.2896   -2.2981 C.3       2 UNK        -0.2113 
     34 N          26.6943   24.0662   -1.3347 N.am      2 UNK        -0.4145 
     35 C          27.6489   24.4701   -0.4831 C.2       1 UNK         0.5006 
     36 O          27.4272   24.8414    0.6735 O.2       1 UNK        -0.5103 
     37 C          29.1031   28.4166    2.8780 C.2       5 UNK         0.5055 
     38 O          30.2873   28.7439    2.7610 O.2       5 UNK        -0.5220 
     39 N          28.0987   29.2875    2.6825 N.am      6 UNK        -0.4450 
     40 CA         28.2762   30.7159    2.3924 C.3       6 UNK         0.0367 
     41 CB         26.9375   31.4546    2.5377 C.3       6 UNK        -0.1929 
     42 C          28.8954   30.9804    1.0109 C.2       6 UNK         0.5070 
     43 O          29.5383   32.0140    0.8299 O.2       6 UNK        -0.5237 
     44 N          28.7690   30.0121    0.0908 N.am      7 UNK        -0.4739 
     45 CA         29.4549   29.9735   -1.2068 C.3       7 UNK         0.0276 
     46 CB         28.9890   28.7322   -1.9863 C.3       7 UNK        -0.1927 
     47 C          30.9939   29.9885   -1.1005 C.2       7 UNK         0.5013 
     48 O          31.6552   30.4193   -2.0456 O.2       7 UNK        -0.5193 
     49 N          31.5258   29.5446    0.0461 N.am      8 UNK        -0.4253 
     50 CA         32.9424   29.5879    0.4040 C.3       8 UNK         0.0242 
     51 CB         33.4417   28.1467    0.5714 C.3       8 UNK        -0.2000 
     52 C          33.1682   30.4330    1.6728 C.2       8 UNK         0.4948 
     53 O          34.1552   30.2181    2.3773 O.2       8 UNK        -0.5275 
     54 N          32.2505   31.3739    1.9493 N.am      9 UNK        -0.4246 
     55 CA         32.2578   32.3352    3.0594 C.3       9 UNK         0.0261 
     56 CB         33.4372   33.3216    2.9155 C.3       9 UNK        -0.1959 
     57 C          32.1819   31.7117    4.4698 C.2       9 UNK         0.5033 
     58 O          32.5294   32.3927    5.4363 O.2       9 UNK        -0.5390 
     59 N          31.7025   30.4609    4.5736 N.am      10 UNK        -0.4215 
     60 CA         31.4823   29.6901    5.8040 C.3       10 UNK         0.0240 
     61 CB         30.2489   30.2302    6.5574 C.3       10 UNK        -0.1982 
     62 C          32.7390   29.5775    6.6897 C.2       10 UNK         0.4970 
     63 O          32.7144   29.9826    7.8540 O.2       10 UNK        -0.4916 
     64 N          33.8195   29.0471    6.1012 N.am      11 UNK        -0.4279 
     65 CA         35.1214   28.8196    6.7487 C.3       11 UNK         0.1003 
     66 C          35.0629   27.9236    8.0227 C.2       11 UNK         0.5709 
     67 N          36.0090   28.0894    8.9377 N.am      11 UNK        -0.7358 
     68 O          34.1956   27.0640    8.1730 O.2       11 UNK        -0.4999 
     69 C69        36.1850   28.3297    5.7241 C.3       12 UNK        -0.0954 
     70 S70        35.9462   26.6184    5.1250 S.3       12 UNK        -0.2268 
     71 C71        34.9805   26.8929    3.6079 C.3       12 UNK         0.0203 
     72 H72        30.1874   20.6734   -2.0484 H         1 UNK         0.0888 
     73 H73        28.7153   20.3732   -2.9751 H         1 UNK         0.0888 
     74 H74        30.1510   21.0141   -3.7792 H         1 UNK         0.0888 
     75 H75        29.9970   22.5140   -0.7914 H         1 UNK         0.3017 
     76 H76        29.1285   25.0504   -1.9059 H         1 UNK         0.0873 
     77 H77        30.0602   24.4412    0.9352 H         1 UNK         0.0745 
     78 H78        29.9186   26.0150    0.1976 H         1 UNK         0.0745 
     79 H79        32.0273   22.7720    0.5291 H         1 UNK         0.0705 
     80 H80        33.5982   23.4025    0.1021 H         1 UNK         0.0705 
     81 H81        34.5024   25.4502    1.3439 H         1 UNK         0.1334 
     82 H82        33.0807   25.9887    5.3544 H         1 UNK         0.1417 
     83 H83        31.1105   23.2274    2.7358 H         1 UNK         0.1562 
     84 H84        31.2704   24.7199    6.2008 H         1 UNK         0.0748 
     85 H85        31.0307   23.1541    5.4662 H         1 UNK         0.0748 
     86 H86        30.5002   26.7568    4.5210 H         1 UNK         0.0940 
     87 H87        29.0251   27.0230    5.3969 H         1 UNK         0.0940 
     88 H88        29.2368   26.3638    2.4139 H         1 UNK         0.0703 
     89 H89        27.0822   26.0380    2.3345 H         1 UNK         0.3081 
     90 H90        24.8326   25.5434    3.9161 H         1 UNK         0.0719 
     91 H91        23.9384   28.4645    4.1816 H         1 UNK         0.0809 
     92 H92        22.8628   27.0674    4.1693 H         1 UNK         0.0809 
     93 H93        24.0070   27.2824    5.4819 H         1 UNK         0.0809 
     94 H94        24.1944   25.8155    1.7896 H         1 UNK         0.2990 
     95 H95        23.2878   27.3760   -0.1143 H         1 UNK         0.0690 
     96 H96        24.4085   28.4828   -2.0552 H         1 UNK         0.0788 
     97 H97        25.8290   28.8027   -1.0585 H         1 UNK         0.0788 
     98 H98        24.2930   29.5629   -0.6767 H         1 UNK         0.0788 
     99 H99        25.7371   26.3209   -1.2922 H         1 UNK         0.2993 
    100 H100       25.2667   23.0054   -0.2842 H         1 UNK         0.0949 
    101 H101       25.0593   22.3808   -2.6711 H         1 UNK         0.0767 
    102 H102       23.5396   23.0503   -2.1018 H         1 UNK         0.0767 
    103 H103       24.6074   24.0314   -3.0976 H         1 UNK         0.0767 
    104 H104       27.0162   23.7668   -2.2518 H         1 UNK         0.3013 
    105 H105       27.1404   28.9544    2.7173 H         1 UNK         0.3121 
    106 H106       28.9634   31.1181    3.1399 H         1 UNK         0.0774 
    107 H107       27.0806   32.5330    2.4583 H         1 UNK         0.0815 
    108 H108       26.2284   31.1669    1.7612 H         1 UNK         0.0815 
    109 H109       26.4757   31.2584    3.5056 H         1 UNK         0.0815 
    110 H110       28.2055   29.2107    0.3341 H         1 UNK         0.2987 
    111 H111       29.1613   30.8657   -1.7642 H         1 UNK         0.0949 
    112 H112       29.2060   27.8100   -1.4465 H         1 UNK         0.0806 
    113 H113       27.9188   28.7652   -2.1867 H         1 UNK         0.0806 
    114 H114       29.4911   28.6676   -2.9529 H         1 UNK         0.0806 
    115 H115       30.9036   29.2179    0.7775 H         1 UNK         0.3010 
    116 H116       33.5249   30.0620   -0.3883 H         1 UNK         0.0829 
    117 H117       33.3196   27.5768   -0.3494 H         1 UNK         0.0813 
    118 H118       34.5003   28.1174    0.8306 H         1 UNK         0.0813 
    119 H119       32.8861   27.6358    1.3575 H         1 UNK         0.0813 
    120 H120       31.4638   31.4718    1.3150 H         1 UNK         0.3038 
    121 H121       31.3386   32.9126    2.9492 H         1 UNK         0.0769 
    122 H122       33.3595   34.1368    3.6358 H         1 UNK         0.0811 
    123 H123       33.4595   33.7721    1.9233 H         1 UNK         0.0811 
    124 H124       34.3965   32.8312    3.0838 H         1 UNK         0.0811 
    125 H125       31.4260   29.9821    3.7199 H         1 UNK         0.3204 
    126 H126       31.2492   28.6740    5.4904 H         1 UNK         0.0748 
    127 H127       30.0276   29.6199    7.4339 H         1 UNK         0.0771 
    128 H128       30.4012   31.2538    6.9017 H         1 UNK         0.0771 
    129 H129       29.3623   30.2174    5.9229 H         1 UNK         0.0771 
    130 H130       33.7532   28.7659    5.1357 H         1 UNK         0.2980 
    131 H131       35.4424   29.8065    7.0875 H         1 UNK         0.0545 
    132 H132       36.7338   28.7804    8.8216 H         1 UNK         0.3459 
    133 H133       35.9971   27.5105    9.7628 H         1 UNK         0.3459 
    134 H134       36.2274   29.0089    4.8708 H         1 UNK         0.0616 
    135 H135       37.1765   28.3785    6.1772 H         1 UNK         0.0616 
    136 H136       34.4733   27.8558    3.6492 H         1 UNK         0.0634 
    137 H137       35.6722   26.9468    2.7660 H         1 UNK         0.0634 
@<TRIPOS>BOND
     1    1    2 1    
     2    1   72 1    
     3    1   73 1    
     4    1   74 1    
     5    2    3 2    
     6    2    4 am   BACKBONE|DICT|INTERRES
     7    4    5 1    
     8    4   75 1    
     9    5    6 1    
    10    5   35 1    
    11    5   76 1    
    12    6    7 1    
    13    6   77 1    
    14    6   78 1    
    15    7    8 1    
    16    8    9 1    
    17    8   79 1    
    18    8   80 1    
    19    9   10 ar   
    20    9   14 ar   
    21   10   11 ar   
    22   10   81 1    
    23   11   12 ar   
    24   11   71 1    
    25   12   13 ar   
    26   12   82 1    
    27   13   14 ar   
    28   13   15 1    
    29   14   83 1    
    30   15   16 1    
    31   15   84 1    
    32   15   85 1    
    33   16   17 1    
    34   17   18 1    
    35   17   86 1    
    36   17   87 1    
    37   18   19 1    
    38   18   37 1    
    39   18   88 1    
    40   19   20 am   BACKBONE|DICT|INTERRES
    41   19   89 1    
    42   20   21 2    
    43   20   22 1    
    44   22   23 1    
    45   22   24 1    
    46   22   90 1    
    47   23   91 1    
    48   23   92 1    
    49   23   93 1    
    50   24   25 am   BACKBONE|DICT|INTERRES
    51   24   94 1    
    52   25   26 2    
    53   25   27 1    
    54   27   28 1    
    55   27   29 1    
    56   27   95 1    
    57   28   96 1    
    58   28   97 1    
    59   28   98 1    
    60   29   30 am   BACKBONE|DICT|INTERRES
    61   29   99 1    
    62   30   31 2    
    63   30   32 1    
    64   32   33 1    
    65   32   34 1    
    66   32  100 1    
    67   33  101 1    
    68   33  102 1    
    69   33  103 1    
    70   34   35 am   BACKBONE|DICT|INTERRES
    71   34  104 1    
    72   35   36 2    
    73   37   38 2    
    74   37   39 am   BACKBONE|DICT|INTERRES
    75   39   40 1    
    76   39  105 1    
    77   40   41 1    
    78   40   42 1    
    79   40  106 1    
    80   41  107 1    
    81   41  108 1    
    82   41  109 1    
    83   42   43 2    
    84   42   44 am   BACKBONE|DICT|INTERRES
    85   44   45 1    
    86   44  110 1    
    87   45   46 1    
    88   45   47 1    
    89   45  111 1    
    90   46  112 1    
    91   46  113 1    
    92   46  114 1    
    93   47   48 2    
    94   47   49 am   BACKBONE|DICT|INTERRES
    95   49   50 1    
    96   49  115 1    
    97   50   51 1    
    98   50   52 1    
    99   50  116 1    
   100   51  117 1    
   101   51  118 1    
   102   51  119 1    
   103   52   53 2    
   104   52   54 am   BACKBONE|DICT|INTERRES
   105   54   55 1    
   106   54  120 1    
   107   55   56 1    
   108   55   57 1    
   109   55  121 1    
   110   56  122 1    
   111   56  123 1    
   112   56  124 1    
   113   57   58 2    
   114   57   59 am   BACKBONE|DICT|INTERRES
   115   59   60 1    
   116   59  125 1    
   117   60   61 1    
   118   60   62 1    
   119   60  126 1    
   120   61  127 1    
   121   61  128 1    
   122   61  129 1    
   123   62   63 2    
   124   62   64 am   BACKBONE|DICT|INTERRES
   125   64   65 1    
   126   64  130 1    
   127   65   66 1    
   128   65   69 1    
   129   65  131 1    
   130   66   67 am   BACKBONE|DICT|INTERRES
   131   66   68 2    
   132   67  132 1    
   133   67  133 1    
   134   69   70 1    
   135   69  134 1    
   136   69  135 1    
   137   70   71 1    
   138   71  136 1    
   139   71  137 1    
@<TRIPOS>SUBSTRUCTURE
     1 UNK         1 GROUP             0       ****    0 ROOT    
