@<TRIPOS>MOLECULE
3R136
137   139    1
SMALL
USER_CHARGES


@<TRIPOS>ATOM
      1 CA         27.7737   17.1949    0.2615 C.3       0 UNK        -0.1979 
      2 C          27.4810   18.6866    0.2010 C.2       0 UNK         0.4864 
      3 O          26.7382   19.1312   -0.6769 O.2       0 UNK        -0.5359 
      4 N          28.0547   19.4665    1.1266 N.am      1 UNK        -0.4318 
      5 CA         27.8852   20.9194    1.2301 C.3       1 UNK         0.0824 
      6 C6         29.0532   21.5909    1.9973 C.3       12 UNK        -0.0944 
      7 S7         30.6330   21.4311    1.0996 S.3       12 UNK        -0.2672 
      8 C8         30.6743   23.0115    0.1874 C.3       12 UNK         0.0333 
      9 C9         31.5154   24.0940    0.8609 C.ar      12 UNK        -0.0807 
     10 C10        31.4244   24.3519    2.2353 C.ar      12 UNK        -0.0894 
     11 C11        32.2150   25.3414    2.8281 C.ar      12 UNK        -0.0804 
     12 C12        33.0834   26.0957    2.0340 C.ar      12 UNK        -0.0824 
     13 C13        33.1709   25.8624    0.6595 C.ar      12 UNK        -0.0762 
     14 C14        32.3900   24.8581    0.0814 C.ar      12 UNK        -0.0782 
     15 C15        34.1327   26.6776   -0.1906 C.3       12 UNK         0.0230 
     16 S16        33.4255   28.2864   -0.6596 S.3       12 UNK        -0.2608 
     17 C17        32.2533   27.8365   -1.9905 C.3       12 UNK        -0.0989 
     18 CA         30.7890   28.2677   -1.7180 C.3       5 UNK         0.0716 
     19 N          30.2414   27.6202   -0.5178 N.am      5 UNK        -0.4135 
     20 C          28.9363   27.5220   -0.2302 C.2       4 UNK         0.5031 
     21 O          28.0417   27.9692   -0.9524 O.2       4 UNK        -0.5229 
     22 CA         28.5844   26.8423    1.1050 C.3       4 UNK         0.0329 
     23 CB         28.8907   27.7717    2.2897 C.3       4 UNK        -0.2001 
     24 N          27.1710   26.4655    1.1674 N.am      4 UNK        -0.4303 
     25 C          26.6496   25.3761    0.5954 C.2       3 UNK         0.5044 
     26 O          27.3114   24.5236   -0.0047 O.2       3 UNK        -0.5152 
     27 CA         25.1295   25.2050    0.7149 C.3       3 UNK         0.0319 
     28 CB         24.3948   25.9290   -0.4255 C.3       3 UNK        -0.2001 
     29 N          24.8540   23.7769    0.6479 N.am      3 UNK        -0.4354 
     30 C          23.9748   23.0972    1.3917 C.2       2 UNK         0.4964 
     31 O          23.1273   23.6244    2.1130 O.2       2 UNK        -0.5047 
     32 CA         24.0873   21.5601    1.3461 C.3       2 UNK         0.0288 
     33 CB         23.1109   20.9747    0.3133 C.3       2 UNK        -0.2113 
     34 N          25.4485   21.1023    1.0407 N.am      2 UNK        -0.4145 
     35 C          26.5124   21.2713    1.8393 C.2       1 UNK         0.5006 
     36 O          26.4359   21.6931    2.9954 O.2       1 UNK        -0.5103 
     37 C          30.6459   29.8093   -1.7209 C.2       5 UNK         0.5055 
     38 O          30.7650   30.4212   -2.7842 O.2       5 UNK        -0.5220 
     39 N          30.4091   30.4084   -0.5491 N.am      6 UNK        -0.4450 
     40 CA         30.2322   31.8394   -0.3268 C.3       6 UNK         0.0367 
     41 CB         31.5991   32.4858   -0.0326 C.3       6 UNK        -0.1929 
     42 C          29.2534   32.0263    0.8396 C.2       6 UNK         0.5070 
     43 O          28.7794   31.0384    1.4072 O.2       6 UNK        -0.5237 
     44 N          28.9761   33.2858    1.1982 N.am      7 UNK        -0.4739 
     45 CA         28.0823   33.6865    2.2908 C.3       7 UNK         0.0276 
     46 CB         27.7179   35.1723    2.1110 C.3       7 UNK        -0.1927 
     47 C          28.6705   33.3908    3.6873 C.2       7 UNK         0.5013 
     48 O          28.9854   34.3186    4.4347 O.2       7 UNK        -0.5193 
     49 N          28.8358   32.0976    3.9961 N.am      8 UNK        -0.4253 
     50 CA         29.2954   31.4716    5.2460 C.3       8 UNK         0.0242 
     51 CB         28.3425   31.7990    6.4114 C.3       8 UNK        -0.2000 
     52 C          30.7558   31.7526    5.6462 C.2       8 UNK         0.4948 
     53 O          31.3867   30.8704    6.2270 O.2       8 UNK        -0.5275 
     54 N          31.2797   32.9445    5.3304 N.am      9 UNK        -0.4246 
     55 CA         32.6180   33.4306    5.6906 C.3       9 UNK         0.0261 
     56 CB         32.8066   34.8490    5.1293 C.3       9 UNK        -0.1959 
     57 C          33.7774   32.5197    5.2480 C.2       9 UNK         0.5033 
     58 O          34.7754   32.4213    5.9636 O.2       9 UNK        -0.5390 
     59 N          33.6111   31.8399    4.1049 N.am      10 UNK        -0.4215 
     60 CA         34.5523   30.8492    3.5742 C.3       10 UNK         0.0240 
     61 CB         34.1461   30.4807    2.1387 C.3       10 UNK        -0.1982 
     62 C          34.6801   29.5777    4.4348 C.2       10 UNK         0.4970 
     63 O          35.6912   28.8842    4.3174 O.2       10 UNK        -0.4916 
     64 N          33.6739   29.2905    5.2706 N.am      11 UNK        -0.4279 
     65 CA         33.6519   28.1460    6.1926 C.3       11 UNK         0.1003 
     66 C          34.2908   28.4541    7.5778 C.2       11 UNK         0.5709 
     67 N          34.7604   29.6682    7.8470 N.am      11 UNK        -0.7358 
     68 O          34.3803   27.5666    8.4230 O.2       11 UNK        -0.4999 
     69 C69        32.2266   27.5428    6.3381 C.3       12 UNK        -0.0954 
     70 S70        31.4350   27.1868    4.7332 S.3       12 UNK        -0.2268 
     71 C71        32.1714   25.5747    4.3308 C.3       12 UNK         0.0203 
     72 H72        28.4460   16.9444    1.0820 H         1 UNK         0.0888 
     73 H73        26.8480   16.6365    0.3981 H         1 UNK         0.0888 
     74 H74        28.2367   16.8662   -0.6686 H         1 UNK         0.0888 
     75 H75        28.6489   19.0482    1.8283 H         1 UNK         0.3017 
     76 H76        27.8880   21.3366    0.2200 H         1 UNK         0.0873 
     77 H77        28.8447   22.6503    2.1602 H         1 UNK         0.0745 
     78 H78        29.1701   21.1499    2.9889 H         1 UNK         0.0745 
     79 H79        31.0684   22.7979   -0.8074 H         1 UNK         0.0705 
     80 H80        29.6632   23.3862    0.0316 H         1 UNK         0.0705 
     81 H81        30.7555   23.7692    2.8517 H         1 UNK         0.1334 
     82 H82        33.6957   26.8628    2.4899 H         1 UNK         0.1417 
     83 H83        32.4683   24.6666   -0.9802 H         1 UNK         0.1562 
     84 H84        34.4275   26.1275   -1.0857 H         1 UNK         0.0748 
     85 H85        35.0519   26.8528    0.3707 H         1 UNK         0.0748 
     86 H86        32.2876   26.7612   -2.1653 H         1 UNK         0.0940 
     87 H87        32.6112   28.2834   -2.9202 H         1 UNK         0.0940 
     88 H88        30.1941   27.9153   -2.5637 H         1 UNK         0.0703 
     89 H89        30.9226   27.2411    0.1258 H         1 UNK         0.3081 
     90 H90        29.1959   25.9430    1.2005 H         1 UNK         0.0719 
     91 H91        29.9240   28.1199    2.2702 H         1 UNK         0.0809 
     92 H92        28.7437   27.2565    3.2390 H         1 UNK         0.0809 
     93 H93        28.2480   28.6518    2.2886 H         1 UNK         0.0809 
     94 H94        26.5481   27.1349    1.5955 H         1 UNK         0.2990 
     95 H95        24.8045   25.6044    1.6783 H         1 UNK         0.0690 
     96 H96        23.3156   25.7955   -0.3479 H         1 UNK         0.0788 
     97 H97        24.7086   25.5614   -1.4035 H         1 UNK         0.0788 
     98 H98        24.5932   27.0013   -0.4006 H         1 UNK         0.0788 
     99 H99        25.5438   23.2593    0.1181 H         1 UNK         0.2993 
    100 H100       23.8159   21.1814    2.3340 H         1 UNK         0.0949 
    101 H101       23.1340   19.8847    0.3194 H         1 UNK         0.0767 
    102 H102       22.0856   21.2778    0.5304 H         1 UNK         0.0767 
    103 H103       23.3436   21.3102   -0.6983 H         1 UNK         0.0767 
    104 H104       25.6018   20.6535    0.1430 H         1 UNK         0.3013 
    105 H105       30.2202   29.8382    0.2646 H         1 UNK         0.3121 
    106 H106       29.7890   32.2965   -1.2141 H         1 UNK         0.0774 
    107 H107       32.0043   32.1438    0.9192 H         1 UNK         0.0815 
    108 H108       32.3270   32.2507   -0.8095 H         1 UNK         0.0815 
    109 H109       31.5238   33.5724    0.0158 H         1 UNK         0.0815 
    110 H110       29.4261   34.0379    0.6960 H         1 UNK         0.2987 
    111 H111       27.1586   33.1090    2.2069 H         1 UNK         0.0949 
    112 H112       28.5987   35.8141    2.1576 H         1 UNK         0.0806 
    113 H113       27.2243   35.3477    1.1550 H         1 UNK         0.0806 
    114 H114       27.0320   35.5036    2.8920 H         1 UNK         0.0806 
    115 H115       28.6463   31.4476    3.2353 H         1 UNK         0.3010 
    116 H116       29.2351   30.3964    5.0674 H         1 UNK         0.0829 
    117 H117       27.3172   31.5119    6.1778 H         1 UNK         0.0813 
    118 H118       28.6319   31.2589    7.3140 H         1 UNK         0.0813 
    119 H119       28.3466   32.8619    6.6551 H         1 UNK         0.0813 
    120 H120       30.6435   33.6165    4.9072 H         1 UNK         0.3038 
    121 H121       32.6533   33.4870    6.7804 H         1 UNK         0.0769 
    122 H122       32.7380   34.8649    4.0408 H         1 UNK         0.0811 
    123 H123       33.7837   35.2511    5.4016 H         1 UNK         0.0811 
    124 H124       32.0552   35.5343    5.5222 H         1 UNK         0.0811 
    125 H125       32.7527   31.9788    3.5931 H         1 UNK         0.3204 
    126 H126       35.5403   31.3132    3.5401 H         1 UNK         0.0748 
    127 H127       34.1859   31.3477    1.4798 H         1 UNK         0.0771 
    128 H128       34.8244   29.7351    1.7212 H         1 UNK         0.0771 
    129 H129       33.1394   30.0624    2.0946 H         1 UNK         0.0771 
    130 H130       32.8865   29.9248    5.3582 H         1 UNK         0.2980 
    131 H131       34.2785   27.3609    5.7670 H         1 UNK         0.0545 
    132 H132       35.1767   29.8462    8.7470 H         1 UNK         0.3459 
    133 H133       34.7022   30.4090    7.1623 H         1 UNK         0.3459 
    134 H134       32.2525   26.6233    6.9258 H         1 UNK         0.0616 
    135 H135       31.5782   28.2320    6.8814 H         1 UNK         0.0616 
    136 H136       31.6064   24.7900    4.8360 H         1 UNK         0.0634 
    137 H137       33.1889   25.5216    4.7195 H         1 UNK         0.0634 
@<TRIPOS>BOND
     1    1    2 1    
     2    1   72 1    
     3    1   73 1    
     4    1   74 1    
     5    2    3 2    
     6    2    4 am   BACKBONE|DICT|INTERRES
     7    4    5 1    
     8    4   75 1    
     9    5    6 1    
    10    5   35 1    
    11    5   76 1    
    12    6    7 1    
    13    6   77 1    
    14    6   78 1    
    15    7    8 1    
    16    8    9 1    
    17    8   79 1    
    18    8   80 1    
    19    9   10 ar   
    20    9   14 ar   
    21   10   11 ar   
    22   10   81 1    
    23   11   12 ar   
    24   11   71 1    
    25   12   13 ar   
    26   12   82 1    
    27   13   14 ar   
    28   13   15 1    
    29   14   83 1    
    30   15   16 1    
    31   15   84 1    
    32   15   85 1    
    33   16   17 1    
    34   17   18 1    
    35   17   86 1    
    36   17   87 1    
    37   18   19 1    
    38   18   37 1    
    39   18   88 1    
    40   19   20 am   BACKBONE|DICT|INTERRES
    41   19   89 1    
    42   20   21 2    
    43   20   22 1    
    44   22   23 1    
    45   22   24 1    
    46   22   90 1    
    47   23   91 1    
    48   23   92 1    
    49   23   93 1    
    50   24   25 am   BACKBONE|DICT|INTERRES
    51   24   94 1    
    52   25   26 2    
    53   25   27 1    
    54   27   28 1    
    55   27   29 1    
    56   27   95 1    
    57   28   96 1    
    58   28   97 1    
    59   28   98 1    
    60   29   30 am   BACKBONE|DICT|INTERRES
    61   29   99 1    
    62   30   31 2    
    63   30   32 1    
    64   32   33 1    
    65   32   34 1    
    66   32  100 1    
    67   33  101 1    
    68   33  102 1    
    69   33  103 1    
    70   34   35 am   BACKBONE|DICT|INTERRES
    71   34  104 1    
    72   35   36 2    
    73   37   38 2    
    74   37   39 am   BACKBONE|DICT|INTERRES
    75   39   40 1    
    76   39  105 1    
    77   40   41 1    
    78   40   42 1    
    79   40  106 1    
    80   41  107 1    
    81   41  108 1    
    82   41  109 1    
    83   42   43 2    
    84   42   44 am   BACKBONE|DICT|INTERRES
    85   44   45 1    
    86   44  110 1    
    87   45   46 1    
    88   45   47 1    
    89   45  111 1    
    90   46  112 1    
    91   46  113 1    
    92   46  114 1    
    93   47   48 2    
    94   47   49 am   BACKBONE|DICT|INTERRES
    95   49   50 1    
    96   49  115 1    
    97   50   51 1    
    98   50   52 1    
    99   50  116 1    
   100   51  117 1    
   101   51  118 1    
   102   51  119 1    
   103   52   53 2    
   104   52   54 am   BACKBONE|DICT|INTERRES
   105   54   55 1    
   106   54  120 1    
   107   55   56 1    
   108   55   57 1    
   109   55  121 1    
   110   56  122 1    
   111   56  123 1    
   112   56  124 1    
   113   57   58 2    
   114   57   59 am   BACKBONE|DICT|INTERRES
   115   59   60 1    
   116   59  125 1    
   117   60   61 1    
   118   60   62 1    
   119   60  126 1    
   120   61  127 1    
   121   61  128 1    
   122   61  129 1    
   123   62   63 2    
   124   62   64 am   BACKBONE|DICT|INTERRES
   125   64   65 1    
   126   64  130 1    
   127   65   66 1    
   128   65   69 1    
   129   65  131 1    
   130   66   67 am   BACKBONE|DICT|INTERRES
   131   66   68 2    
   132   67  132 1    
   133   67  133 1    
   134   69   70 1    
   135   69  134 1    
   136   69  135 1    
   137   70   71 1    
   138   71  136 1    
   139   71  137 1    
@<TRIPOS>SUBSTRUCTURE
     1 UNK         1 GROUP             0       ****    0 ROOT    
