@<TRIPOS>MOLECULE
3R136
137   139    1
SMALL
USER_CHARGES


@<TRIPOS>ATOM
      1 CA         31.9451   19.6714    5.2240 C.3       0 UNK        -0.1979 
      2 C          30.5638   19.6512    4.5829 C.2       0 UNK         0.4864 
      3 O          29.6333   19.0774    5.1513 O.2       0 UNK        -0.5359 
      4 N          30.4244   20.2751    3.4041 N.am      1 UNK        -0.4318 
      5 CA         29.1722   20.3872    2.6405 C.3       1 UNK         0.0824 
      6 C6         29.4106   20.6980    1.1342 C.3       12 UNK        -0.0944 
      7 S7         30.7725   21.8668    0.7886 S.3       12 UNK        -0.2672 
      8 C8         29.8693   23.3967    0.4125 C.3       12 UNK         0.0333 
      9 C9         30.8368   24.5450    0.1693 C.ar      12 UNK        -0.0807 
     10 C10        31.5673   25.0609    1.2420 C.ar      12 UNK        -0.0894 
     11 C11        32.4510   26.1251    1.0584 C.ar      12 UNK        -0.0804 
     12 C12        32.6186   26.6653   -0.2170 C.ar      12 UNK        -0.0824 
     13 C13        31.8712   26.1820   -1.2960 C.ar      12 UNK        -0.0762 
     14 C14        30.9906   25.1102   -1.1028 C.ar      12 UNK        -0.0782 
     15 C15        31.9732   26.8775   -2.6477 C.3       12 UNK         0.0230 
     16 S16        30.6256   28.0862   -2.9161 S.3       12 UNK        -0.2608 
     17 C17        30.4400   28.8478   -1.2670 C.3       12 UNK        -0.0989 
     18 CA         29.4613   30.0529   -1.2407 C.3       5 UNK         0.0716 
     19 N          28.7066   30.0702    0.0069 N.am      5 UNK        -0.4135 
     20 C          27.5980   29.3653    0.2328 C.2       4 UNK         0.5031 
     21 O          27.0089   28.7006   -0.6240 O.2       4 UNK        -0.5229 
     22 CA         27.0488   29.4159    1.6633 C.3       4 UNK         0.0329 
     23 CB         25.9499   30.4829    1.7958 C.3       4 UNK        -0.2001 
     24 N          26.5142   28.1104    2.0448 N.am      4 UNK        -0.4303 
     25 C          27.2752   27.0769    2.4238 C.2       3 UNK         0.5044 
     26 O          28.4822   27.1592    2.6555 O.2       3 UNK        -0.5152 
     27 CA         26.5564   25.7334    2.5624 C.3       3 UNK         0.0319 
     28 CB         26.3735   25.0683    1.1859 C.3       3 UNK        -0.2001 
     29 N          27.3153   24.8418    3.4392 N.am      3 UNK        -0.4354 
     30 C          26.7583   23.9712    4.2887 C.2       2 UNK         0.4964 
     31 O          25.5401   23.8545    4.4445 O.2       2 UNK        -0.5047 
     32 CA         27.7246   23.0632    5.0737 C.3       2 UNK         0.0288 
     33 CB         27.0063   22.1954    6.1303 C.3       2 UNK        -0.2113 
     34 N          28.5498   22.2138    4.1999 N.am      2 UNK        -0.4145 
     35 C          28.1219   21.3201    3.2890 C.2       1 UNK         0.5006 
     36 O          26.9394   21.1693    2.9753 O.2       1 UNK        -0.5103 
     37 C          30.1737   31.4053   -1.4123 C.2       5 UNK         0.5055 
     38 O          29.9683   32.3235   -0.6138 O.2       5 UNK        -0.5220 
     39 N          31.0292   31.4992   -2.4384 N.am      6 UNK        -0.4450 
     40 CA         31.9114   32.6474   -2.6738 C.3       6 UNK         0.0367 
     41 CB         32.5466   32.5207   -4.0679 C.3       6 UNK        -0.1929 
     42 C          33.0034   32.8031   -1.5960 C.2       6 UNK         0.5070 
     43 O          33.4806   33.9171   -1.3789 O.2       6 UNK        -0.5237 
     44 N          33.3818   31.6891   -0.9513 N.am      7 UNK        -0.4739 
     45 CA         34.3725   31.6358    0.1243 C.3       7 UNK         0.0276 
     46 CB         34.7750   30.1725    0.3785 C.3       7 UNK        -0.1927 
     47 C          33.8822   32.2942    1.4248 C.2       7 UNK         0.5013 
     48 O          34.6071   33.1114    1.9943 O.2       7 UNK        -0.5193 
     49 N          32.6756   31.9219    1.8710 N.am      8 UNK        -0.4253 
     50 CA         32.0517   32.3436    3.1240 C.3       8 UNK         0.0242 
     51 CB         32.8525   31.8116    4.3338 C.3       8 UNK        -0.2000 
     52 C          30.6054   31.8306    3.1676 C.2       8 UNK         0.4948 
     53 O          30.2047   31.0284    2.3182 O.2       8 UNK        -0.5275 
     54 N          29.8525   32.2947    4.1718 N.am      9 UNK        -0.4246 
     55 CA         28.5158   31.8049    4.4986 C.3       9 UNK         0.0261 
     56 CB         27.7069   32.9338    5.1588 C.3       9 UNK        -0.1959 
     57 C          28.6208   30.5946    5.4411 C.2       9 UNK         0.5033 
     58 O          29.3540   30.6690    6.4300 O.2       9 UNK        -0.5390 
     59 N          27.8615   29.5311    5.1373 N.am      10 UNK        -0.4215 
     60 CA         27.6894   28.2993    5.9243 C.3       10 UNK         0.0240 
     61 CB         26.8591   28.5962    7.1918 C.3       10 UNK        -0.1982 
     62 C          28.9942   27.5336    6.2396 C.2       10 UNK         0.4970 
     63 O          29.0712   26.8751    7.2790 O.2       10 UNK        -0.4916 
     64 N          29.9927   27.6247    5.3533 N.am      11 UNK        -0.4279 
     65 CA         31.2777   26.9248    5.4792 C.3       11 UNK         0.1003 
     66 C          31.2003   25.4315    5.0538 C.2       11 UNK         0.5709 
     67 N          32.2189   24.6451    5.3781 N.am      11 UNK        -0.7358 
     68 O          30.2442   24.9757    4.4284 O.2       11 UNK        -0.4999 
     69 C69        32.4292   27.7045    4.7873 C.3       12 UNK        -0.0954 
     70 S70        32.1679   28.0262    3.0098 S.3       12 UNK        -0.2268 
     71 C71        33.1812   26.7195    2.2486 C.3       12 UNK         0.0203 
     72 H72        32.2982   18.6514    5.3871 H         1 UNK         0.0888 
     73 H73        32.6753   20.1891    4.6002 H         1 UNK         0.0888 
     74 H74        31.9053   20.1770    6.1906 H         1 UNK         0.0888 
     75 H75        31.2235   20.7190    2.9701 H         1 UNK         0.3017 
     76 H76        28.7083   19.3970    2.6738 H         1 UNK         0.0873 
     77 H77        29.6758   19.7672    0.6296 H         1 UNK         0.0745 
     78 H78        28.4957   21.0320    0.6401 H         1 UNK         0.0745 
     79 H79        29.2237   23.2387   -0.4527 H         1 UNK         0.0705 
     80 H80        29.2205   23.6433    1.2543 H         1 UNK         0.0705 
     81 H81        31.4364   24.6354    2.2259 H         1 UNK         0.1334 
     82 H82        33.2919   27.4987   -0.3589 H         1 UNK         0.1417 
     83 H83        30.4081   24.7385   -1.9350 H         1 UNK         0.1562 
     84 H84        31.9530   26.1372   -3.4489 H         1 UNK         0.0748 
     85 H85        32.9312   27.3928   -2.7358 H         1 UNK         0.0748 
     86 H86        31.4172   29.1128   -0.8596 H         1 UNK         0.0940 
     87 H87        30.0648   28.0586   -0.6118 H         1 UNK         0.0940 
     88 H88        28.7505   29.9726   -2.0665 H         1 UNK         0.0703 
     89 H89        29.1327   30.6137    0.7566 H         1 UNK         0.3081 
     90 H90        27.8738   29.6631    2.3307 H         1 UNK         0.0719 
     91 H91        25.1120   30.2828    1.1265 H         1 UNK         0.0809 
     92 H92        25.5597   30.5350    2.8124 H         1 UNK         0.0809 
     93 H93        26.3352   31.4723    1.5449 H         1 UNK         0.0809 
     94 H94        25.5424   27.9434    1.8248 H         1 UNK         0.2990 
     95 H95        25.5738   25.9297    2.9979 H         1 UNK         0.0690 
     96 H96        25.9099   24.0853    1.2754 H         1 UNK         0.0788 
     97 H97        27.3254   24.9461    0.6686 H         1 UNK         0.0788 
     98 H98        25.7328   25.6715    0.5414 H         1 UNK         0.0788 
     99 H99        28.3251   24.9649    3.4308 H         1 UNK         0.2993 
    100 H100       28.4000   23.7234    5.6181 H         1 UNK         0.0949 
    101 H101       26.2929   21.5074    5.6751 H         1 UNK         0.0767 
    102 H102       27.7186   21.6043    6.7064 H         1 UNK         0.0767 
    103 H103       26.4545   22.8173    6.8365 H         1 UNK         0.0767 
    104 H104       29.5470   22.2937    4.3397 H         1 UNK         0.3013 
    105 H105       31.1288   30.7064   -3.0588 H         1 UNK         0.3121 
    106 H106       31.3017   33.5536   -2.6557 H         1 UNK         0.0774 
    107 H107       33.1594   31.6223   -4.1537 H         1 UNK         0.0815 
    108 H108       33.1904   33.3754   -4.2816 H         1 UNK         0.0815 
    109 H109       31.7871   32.4869   -4.8494 H         1 UNK         0.0815 
    110 H110       32.9501   30.8185   -1.2191 H         1 UNK         0.2987 
    111 H111       35.2602   32.1793   -0.2086 H         1 UNK         0.0949 
    112 H112       33.9298   29.5720    0.7171 H         1 UNK         0.0806 
    113 H113       35.1819   29.7083   -0.5200 H         1 UNK         0.0806 
    114 H114       35.5440   30.1102    1.1500 H         1 UNK         0.0806 
    115 H115       32.1080   31.2802    1.3315 H         1 UNK         0.3010 
    116 H116       32.0248   33.4348    3.1494 H         1 UNK         0.0829 
    117 H117       32.3475   32.0147    5.2788 H         1 UNK         0.0813 
    118 H118       32.9985   30.7341    4.2676 H         1 UNK         0.0813 
    119 H119       33.8369   32.2741    4.4004 H         1 UNK         0.0813 
    120 H120       30.2750   32.9119    4.8504 H         1 UNK         0.3038 
    121 H121       28.0009   31.5237    3.5807 H         1 UNK         0.0769 
    122 H122       28.1647   33.2706    6.0902 H         1 UNK         0.0811 
    123 H123       26.6952   32.6012    5.3954 H         1 UNK         0.0811 
    124 H124       27.6174   33.7965    4.4979 H         1 UNK         0.0811 
    125 H125       27.3108   29.5709    4.2924 H         1 UNK         0.3204 
    126 H126       27.0982   27.6227    5.3067 H         1 UNK         0.0748 
    127 H127       26.5967   27.6769    7.7172 H         1 UNK         0.0771 
    128 H128       27.4070   29.2274    7.8924 H         1 UNK         0.0771 
    129 H129       25.9251   29.1014    6.9457 H         1 UNK         0.0771 
    130 H130       29.8287   28.0848    4.4683 H         1 UNK         0.2980 
    131 H131       31.5251   26.9073    6.5427 H         1 UNK         0.0545 
    132 H132       32.1946   23.6757    5.1088 H         1 UNK         0.3459 
    133 H133       33.0081   24.9992    5.8953 H         1 UNK         0.3459 
    134 H134       33.3876   27.2051    4.9372 H         1 UNK         0.0616 
    135 H135       32.5358   28.6723    5.2783 H         1 UNK         0.0616 
    136 H136       33.4026   25.9314    2.9694 H         1 UNK         0.0634 
    137 H137       34.1415   27.1387    1.9441 H         1 UNK         0.0634 
@<TRIPOS>BOND
     1    1    2 1    
     2    1   72 1    
     3    1   73 1    
     4    1   74 1    
     5    2    3 2    
     6    2    4 am   BACKBONE|DICT|INTERRES
     7    4    5 1    
     8    4   75 1    
     9    5    6 1    
    10    5   35 1    
    11    5   76 1    
    12    6    7 1    
    13    6   77 1    
    14    6   78 1    
    15    7    8 1    
    16    8    9 1    
    17    8   79 1    
    18    8   80 1    
    19    9   10 ar   
    20    9   14 ar   
    21   10   11 ar   
    22   10   81 1    
    23   11   12 ar   
    24   11   71 1    
    25   12   13 ar   
    26   12   82 1    
    27   13   14 ar   
    28   13   15 1    
    29   14   83 1    
    30   15   16 1    
    31   15   84 1    
    32   15   85 1    
    33   16   17 1    
    34   17   18 1    
    35   17   86 1    
    36   17   87 1    
    37   18   19 1    
    38   18   37 1    
    39   18   88 1    
    40   19   20 am   BACKBONE|DICT|INTERRES
    41   19   89 1    
    42   20   21 2    
    43   20   22 1    
    44   22   23 1    
    45   22   24 1    
    46   22   90 1    
    47   23   91 1    
    48   23   92 1    
    49   23   93 1    
    50   24   25 am   BACKBONE|DICT|INTERRES
    51   24   94 1    
    52   25   26 2    
    53   25   27 1    
    54   27   28 1    
    55   27   29 1    
    56   27   95 1    
    57   28   96 1    
    58   28   97 1    
    59   28   98 1    
    60   29   30 am   BACKBONE|DICT|INTERRES
    61   29   99 1    
    62   30   31 2    
    63   30   32 1    
    64   32   33 1    
    65   32   34 1    
    66   32  100 1    
    67   33  101 1    
    68   33  102 1    
    69   33  103 1    
    70   34   35 am   BACKBONE|DICT|INTERRES
    71   34  104 1    
    72   35   36 2    
    73   37   38 2    
    74   37   39 am   BACKBONE|DICT|INTERRES
    75   39   40 1    
    76   39  105 1    
    77   40   41 1    
    78   40   42 1    
    79   40  106 1    
    80   41  107 1    
    81   41  108 1    
    82   41  109 1    
    83   42   43 2    
    84   42   44 am   BACKBONE|DICT|INTERRES
    85   44   45 1    
    86   44  110 1    
    87   45   46 1    
    88   45   47 1    
    89   45  111 1    
    90   46  112 1    
    91   46  113 1    
    92   46  114 1    
    93   47   48 2    
    94   47   49 am   BACKBONE|DICT|INTERRES
    95   49   50 1    
    96   49  115 1    
    97   50   51 1    
    98   50   52 1    
    99   50  116 1    
   100   51  117 1    
   101   51  118 1    
   102   51  119 1    
   103   52   53 2    
   104   52   54 am   BACKBONE|DICT|INTERRES
   105   54   55 1    
   106   54  120 1    
   107   55   56 1    
   108   55   57 1    
   109   55  121 1    
   110   56  122 1    
   111   56  123 1    
   112   56  124 1    
   113   57   58 2    
   114   57   59 am   BACKBONE|DICT|INTERRES
   115   59   60 1    
   116   59  125 1    
   117   60   61 1    
   118   60   62 1    
   119   60  126 1    
   120   61  127 1    
   121   61  128 1    
   122   61  129 1    
   123   62   63 2    
   124   62   64 am   BACKBONE|DICT|INTERRES
   125   64   65 1    
   126   64  130 1    
   127   65   66 1    
   128   65   69 1    
   129   65  131 1    
   130   66   67 am   BACKBONE|DICT|INTERRES
   131   66   68 2    
   132   67  132 1    
   133   67  133 1    
   134   69   70 1    
   135   69  134 1    
   136   69  135 1    
   137   70   71 1    
   138   71  136 1    
   139   71  137 1    
@<TRIPOS>SUBSTRUCTURE
     1 UNK         1 GROUP             0       ****    0 ROOT    
