@<TRIPOS>MOLECULE
3R136
137   139    1
SMALL
USER_CHARGES


@<TRIPOS>ATOM
      1 CA         27.6515   22.8699    3.6633 C.3       0 UNK        -0.1979 
      2 C          27.4709   21.3561    3.7855 C.2       0 UNK         0.4864 
      3 O          27.1546   20.9038    4.8849 O.2       0 UNK        -0.5359 
      4 N          27.6435   20.5111    2.7536 N.am      1 UNK        -0.4318 
      5 CA         27.9887   20.7342    1.3405 C.3       1 UNK         0.0824 
      6 C6         29.5155   20.9223    1.0783 C.3       12 UNK        -0.0944 
      7 S7         30.2293   22.5366    1.5395 S.3       12 UNK        -0.2672 
      8 C8         31.6884   22.6130    0.4572 C.3       12 UNK         0.0333 
      9 C9         32.3658   23.9690    0.5743 C.ar      12 UNK        -0.0807 
     10 C10        33.0523   24.3042    1.7455 C.ar      12 UNK        -0.0894 
     11 C11        33.6485   25.5591    1.8813 C.ar      12 UNK        -0.0804 
     12 C12        33.5535   26.4767    0.8332 C.ar      12 UNK        -0.0824 
     13 C13        32.8647   26.1662   -0.3431 C.ar      12 UNK        -0.0762 
     14 C14        32.2912   24.8943   -0.4735 C.ar      12 UNK        -0.0782 
     15 C15        32.7954   27.2364   -1.4365 C.3       12 UNK         0.0230 
     16 S16        31.4348   27.1067   -2.6542 S.3       12 UNK        -0.2608 
     17 C17        29.9112   26.9777   -1.6583 C.3       12 UNK        -0.0989 
     18 CA         29.4524   28.2794   -0.9484 C.3       5 UNK         0.0716 
     19 N          27.9917   28.3292   -0.8331 N.am      5 UNK        -0.4135 
     20 C          27.2741   29.3731   -0.3948 C.2       4 UNK         0.5031 
     21 O          27.7559   30.4632   -0.0903 O.2       4 UNK        -0.5229 
     22 CA         25.7612   29.1449   -0.2297 C.3       4 UNK         0.0329 
     23 CB         25.0309   29.3669   -1.5636 C.3       4 UNK        -0.2001 
     24 N          25.4382   27.8137    0.2942 N.am      4 UNK        -0.4303 
     25 C          25.7721   27.3851    1.5204 C.2       3 UNK         0.5044 
     26 O          26.3564   28.0771    2.3511 O.2       3 UNK        -0.5152 
     27 CA         25.4461   25.9229    1.8657 C.3       3 UNK         0.0319 
     28 CB         24.0057   25.7958    2.3847 C.3       3 UNK        -0.2001 
     29 N          25.6573   24.9800    0.7620 N.am      3 UNK        -0.4354 
     30 C          26.8172   24.8016    0.1159 C.2       2 UNK         0.4964 
     31 O          27.8316   25.4695    0.3269 O.2       2 UNK        -0.5047 
     32 CA         26.8662   23.6558   -0.9061 C.3       2 UNK         0.0288 
     33 CB         27.5998   24.0693   -2.1932 C.3       2 UNK        -0.2113 
     34 N          27.5613   22.5223   -0.3039 N.am      2 UNK        -0.4145 
     35 C          27.0301   21.7062    0.6149 C.2       1 UNK         0.5006 
     36 O          25.8316   21.7061    0.9076 O.2       1 UNK        -0.5103 
     37 C          30.0958   28.4139    0.4433 C.2       5 UNK         0.5055 
     38 O          30.9419   29.2862    0.6497 O.2       5 UNK        -0.5220 
     39 N          29.6411   27.5671    1.3785 N.am      6 UNK        -0.4450 
     40 CA         30.1114   27.5316    2.7607 C.3       6 UNK         0.0367 
     41 CB         29.4949   26.3270    3.4871 C.3       6 UNK        -0.1929 
     42 C          29.8538   28.8397    3.5260 C.2       6 UNK         0.5070 
     43 O          30.7312   29.2876    4.2646 O.2       6 UNK        -0.5237 
     44 N          28.6791   29.4486    3.3099 N.am      7 UNK        -0.4739 
     45 CA         28.3030   30.7534    3.8564 C.3       7 UNK         0.0276 
     46 CB         26.8052   31.0056    3.6234 C.3       7 UNK        -0.1927 
     47 C          29.1393   31.9069    3.2815 C.2       7 UNK         0.5013 
     48 O          29.5515   32.7787    4.0463 O.2       7 UNK        -0.5193 
     49 N          29.3942   31.8878    1.9637 N.am      8 UNK        -0.4253 
     50 CA         30.2328   32.8725    1.2716 C.3       8 UNK         0.0242 
     51 CB         30.1067   32.6976   -0.2502 C.3       8 UNK        -0.2000 
     52 C          31.7055   32.8082    1.7068 C.2       8 UNK         0.4948 
     53 O          32.3214   33.8552    1.9107 O.2       8 UNK        -0.5275 
     54 N          32.2339   31.5869    1.8659 N.am      9 UNK        -0.4246 
     55 CA         33.5762   31.3314    2.3954 C.3       9 UNK         0.0261 
     56 CB         33.9736   29.8880    2.0622 C.3       9 UNK        -0.1959 
     57 C          33.6949   31.5780    3.9103 C.2       9 UNK         0.5033 
     58 O          34.8029   31.8213    4.3902 O.2       9 UNK        -0.5390 
     59 N          32.5642   31.4900    4.6258 N.am      10 UNK        -0.4215 
     60 CA         32.4035   31.5786    6.0804 C.3       10 UNK         0.0240 
     61 CB         32.7878   32.9799    6.6017 C.3       10 UNK        -0.1982 
     62 C          33.1101   30.4312    6.8294 C.2       10 UNK         0.4970 
     63 O          33.6027   30.6382    7.9403 O.2       10 UNK        -0.4916 
     64 N          33.1410   29.2417    6.2134 N.am      11 UNK        -0.4279 
     65 CA         33.7222   28.0174    6.7876 C.3       11 UNK         0.1003 
     66 C          32.7494   27.2199    7.7048 C.2       11 UNK         0.5709 
     67 N          31.4664   27.5589    7.7682 N.am      11 UNK        -0.7358 
     68 O          33.1725   26.2901    8.3880 O.2       11 UNK        -0.4999 
     69 C69        34.3871   27.1281    5.7024 C.3       12 UNK        -0.0954 
     70 S70        33.2325   26.5518    4.4168 S.3       12 UNK        -0.2268 
     71 C71        34.3865   25.9303    3.1590 C.3       12 UNK         0.0203 
     72 H72        28.5621   23.1726    4.1793 H         1 UNK         0.0888 
     73 H73        27.7122   23.2411    2.6463 H         1 UNK         0.0888 
     74 H74        26.8146   23.3798    4.1393 H         1 UNK         0.0888 
     75 H75        27.4699   19.5374    2.9589 H         1 UNK         0.3017 
     76 H76        27.7450   19.7758    0.8789 H         1 UNK         0.0873 
     77 H77        30.0712   20.1527    1.6165 H         1 UNK         0.0745 
     78 H78        29.7267   20.7356    0.0238 H         1 UNK         0.0745 
     79 H79        31.3903   22.4209   -0.5746 H         1 UNK         0.0705 
     80 H80        32.3894   21.8243    0.7344 H         1 UNK         0.0705 
     81 H81        33.1055   23.5934    2.5590 H         1 UNK         0.1334 
     82 H82        34.0209   27.4432    0.9352 H         1 UNK         0.1417 
     83 H83        31.7710   24.6259   -1.3821 H         1 UNK         0.1562 
     84 H84        33.7370   27.2141   -1.9865 H         1 UNK         0.0748 
     85 H85        32.7428   28.2256   -0.9807 H         1 UNK         0.0748 
     86 H86        29.9831   26.1391   -0.9663 H         1 UNK         0.0940 
     87 H87        29.1456   26.6764   -2.3745 H         1 UNK         0.0940 
     88 H88        29.7570   29.1396   -1.5483 H         1 UNK         0.0703 
     89 H89        27.5077   27.4569   -0.9854 H         1 UNK         0.3081 
     90 H90        25.3938   29.8836    0.4861 H         1 UNK         0.0719 
     91 H91        25.3328   28.6405   -2.3192 H         1 UNK         0.0809 
     92 H92        23.9500   29.2949   -1.4407 H         1 UNK         0.0809 
     93 H93        25.2437   30.3598   -1.9628 H         1 UNK         0.0809 
     94 H94        24.9516   27.1782   -0.3213 H         1 UNK         0.2990 
     95 H95        26.1208   25.6265    2.6714 H         1 UNK         0.0690 
     96 H96        23.2738   26.0339    1.6119 H         1 UNK         0.0788 
     97 H97        23.8308   26.4752    3.2204 H         1 UNK         0.0788 
     98 H98        23.8009   24.7866    2.7429 H         1 UNK         0.0788 
     99 H99        24.8889   24.3587    0.5500 H         1 UNK         0.2993 
    100 H100       25.8478   23.3629   -1.1715 H         1 UNK         0.0949 
    101 H101       28.6525   24.2855   -2.0091 H         1 UNK         0.0767 
    102 H102       27.5520   23.2791   -2.9428 H         1 UNK         0.0767 
    103 H103       27.1499   24.9601   -2.6333 H         1 UNK         0.0767 
    104 H104       28.5644   22.5024   -0.4225 H         1 UNK         0.3013 
    105 H105       28.9501   26.8714    1.1094 H         1 UNK         0.3121 
    106 H106       31.1905   27.3899    2.7120 H         1 UNK         0.0774 
    107 H107       29.8652   26.2603    4.5110 H         1 UNK         0.0815 
    108 H108       28.4077   26.3954    3.5326 H         1 UNK         0.0815 
    109 H109       29.7535   25.3927    2.9877 H         1 UNK         0.0815 
    110 H110       27.9775   28.9724    2.7475 H         1 UNK         0.2987 
    111 H111       28.4790   30.7249    4.9340 H         1 UNK         0.0949 
    112 H112       26.5562   31.0030    2.5615 H         1 UNK         0.0806 
    113 H113       26.1957   30.2444    4.1109 H         1 UNK         0.0806 
    114 H114       26.5025   31.9718    4.0292 H         1 UNK         0.0806 
    115 H115       28.9825   31.1572    1.3908 H         1 UNK         0.3010 
    116 H116       29.8578   33.8655    1.5289 H         1 UNK         0.0829 
    117 H117       30.7281   33.4204   -0.7805 H         1 UNK         0.0813 
    118 H118       30.4161   31.7021   -0.5706 H         1 UNK         0.0813 
    119 H119       29.0794   32.8498   -0.5814 H         1 UNK         0.0813 
    120 H120       31.6795   30.7752    1.5986 H         1 UNK         0.3038 
    121 H121       34.2774   32.0037    1.8965 H         1 UNK         0.0769 
    122 H122       34.9698   29.6539    2.4401 H         1 UNK         0.0811 
    123 H123       33.9875   29.7328    0.9836 H         1 UNK         0.0811 
    124 H124       33.2780   29.1703    2.5003 H         1 UNK         0.0811 
    125 H125       31.7276   31.2070    4.1291 H         1 UNK         0.3204 
    126 H126       31.3371   31.4432    6.2668 H         1 UNK         0.0748 
    127 H127       32.5245   33.0914    7.6542 H         1 UNK         0.0771 
    128 H128       33.8583   33.1673    6.5132 H         1 UNK         0.0771 
    129 H129       32.2628   33.7620    6.0529 H         1 UNK         0.0771 
    130 H130       32.6469   29.1332    5.3354 H         1 UNK         0.2980 
    131 H131       34.5335   28.3228    7.4508 H         1 UNK         0.0545 
    132 H132       30.8480   27.0413    8.3720 H         1 UNK         0.3459 
    133 H133       31.1099   28.3097    7.1993 H         1 UNK         0.3459 
    134 H134       35.1857   27.6925    5.2183 H         1 UNK         0.0616 
    135 H135       34.8678   26.2591    6.1553 H         1 UNK         0.0616 
    136 H136       35.1406   26.6907    2.9500 H         1 UNK         0.0634 
    137 H137       34.9182   25.0628    3.5526 H         1 UNK         0.0634 
@<TRIPOS>BOND
     1    1    2 1    
     2    1   72 1    
     3    1   73 1    
     4    1   74 1    
     5    2    3 2    
     6    2    4 am   BACKBONE|DICT|INTERRES
     7    4    5 1    
     8    4   75 1    
     9    5    6 1    
    10    5   35 1    
    11    5   76 1    
    12    6    7 1    
    13    6   77 1    
    14    6   78 1    
    15    7    8 1    
    16    8    9 1    
    17    8   79 1    
    18    8   80 1    
    19    9   10 ar   
    20    9   14 ar   
    21   10   11 ar   
    22   10   81 1    
    23   11   12 ar   
    24   11   71 1    
    25   12   13 ar   
    26   12   82 1    
    27   13   14 ar   
    28   13   15 1    
    29   14   83 1    
    30   15   16 1    
    31   15   84 1    
    32   15   85 1    
    33   16   17 1    
    34   17   18 1    
    35   17   86 1    
    36   17   87 1    
    37   18   19 1    
    38   18   37 1    
    39   18   88 1    
    40   19   20 am   BACKBONE|DICT|INTERRES
    41   19   89 1    
    42   20   21 2    
    43   20   22 1    
    44   22   23 1    
    45   22   24 1    
    46   22   90 1    
    47   23   91 1    
    48   23   92 1    
    49   23   93 1    
    50   24   25 am   BACKBONE|DICT|INTERRES
    51   24   94 1    
    52   25   26 2    
    53   25   27 1    
    54   27   28 1    
    55   27   29 1    
    56   27   95 1    
    57   28   96 1    
    58   28   97 1    
    59   28   98 1    
    60   29   30 am   BACKBONE|DICT|INTERRES
    61   29   99 1    
    62   30   31 2    
    63   30   32 1    
    64   32   33 1    
    65   32   34 1    
    66   32  100 1    
    67   33  101 1    
    68   33  102 1    
    69   33  103 1    
    70   34   35 am   BACKBONE|DICT|INTERRES
    71   34  104 1    
    72   35   36 2    
    73   37   38 2    
    74   37   39 am   BACKBONE|DICT|INTERRES
    75   39   40 1    
    76   39  105 1    
    77   40   41 1    
    78   40   42 1    
    79   40  106 1    
    80   41  107 1    
    81   41  108 1    
    82   41  109 1    
    83   42   43 2    
    84   42   44 am   BACKBONE|DICT|INTERRES
    85   44   45 1    
    86   44  110 1    
    87   45   46 1    
    88   45   47 1    
    89   45  111 1    
    90   46  112 1    
    91   46  113 1    
    92   46  114 1    
    93   47   48 2    
    94   47   49 am   BACKBONE|DICT|INTERRES
    95   49   50 1    
    96   49  115 1    
    97   50   51 1    
    98   50   52 1    
    99   50  116 1    
   100   51  117 1    
   101   51  118 1    
   102   51  119 1    
   103   52   53 2    
   104   52   54 am   BACKBONE|DICT|INTERRES
   105   54   55 1    
   106   54  120 1    
   107   55   56 1    
   108   55   57 1    
   109   55  121 1    
   110   56  122 1    
   111   56  123 1    
   112   56  124 1    
   113   57   58 2    
   114   57   59 am   BACKBONE|DICT|INTERRES
   115   59   60 1    
   116   59  125 1    
   117   60   61 1    
   118   60   62 1    
   119   60  126 1    
   120   61  127 1    
   121   61  128 1    
   122   61  129 1    
   123   62   63 2    
   124   62   64 am   BACKBONE|DICT|INTERRES
   125   64   65 1    
   126   64  130 1    
   127   65   66 1    
   128   65   69 1    
   129   65  131 1    
   130   66   67 am   BACKBONE|DICT|INTERRES
   131   66   68 2    
   132   67  132 1    
   133   67  133 1    
   134   69   70 1    
   135   69  134 1    
   136   69  135 1    
   137   70   71 1    
   138   71  136 1    
   139   71  137 1    
@<TRIPOS>SUBSTRUCTURE
     1 UNK         1 GROUP             0       ****    0 ROOT    
