@<TRIPOS>MOLECULE
3R136
137   139    1
SMALL
USER_CHARGES


@<TRIPOS>ATOM
      1 CA         28.0597   24.6661   -4.2948 C.3       0 UNK        -0.1979 
      2 C          28.5516   24.9408   -2.8827 C.2       0 UNK         0.4864 
      3 O          27.9573   25.7603   -2.1813 O.2       0 UNK        -0.5359 
      4 N          29.6200   24.2503   -2.4548 N.am      1 UNK        -0.4318 
      5 CA         30.2840   24.3883   -1.1488 C.3       1 UNK         0.0824 
      6 C6         31.4825   23.4125   -1.0331 C.3       12 UNK        -0.0944 
      7 S7         32.6107   23.7987    0.3515 S.3       12 UNK        -0.2672 
      8 C8         32.3528   22.3756    1.4609 C.3       12 UNK         0.0333 
      9 C9         32.1326   22.8308    2.8940 C.ar      12 UNK        -0.0807 
     10 C10        33.2180   23.0126    3.7555 C.ar      12 UNK        -0.0894 
     11 C11        33.0186   23.4357    5.0741 C.ar      12 UNK        -0.0804 
     12 C12        31.7143   23.6670    5.5275 C.ar      12 UNK        -0.0824 
     13 C13        30.6238   23.5184    4.6652 C.ar      12 UNK        -0.0762 
     14 C14        30.8387   23.0803    3.3565 C.ar      12 UNK        -0.0782 
     15 C15        29.2215   23.8957    5.1269 C.3       12 UNK         0.0230 
     16 S16        28.5571   25.3415    4.2273 S.3       12 UNK        -0.2608 
     17 C17        29.9901   26.4762    4.2330 C.3       12 UNK        -0.0989 
     18 CA         29.7341   27.8569    3.5900 C.3       5 UNK         0.0716 
     19 N          29.2787   27.7629    2.1984 N.am      5 UNK        -0.4135 
     20 C          29.3690   28.7760    1.3281 C.2       4 UNK         0.5031 
     21 O          30.0152   29.7941    1.5688 O.2       4 UNK        -0.5229 
     22 CA         28.6203   28.6847   -0.0136 C.3       4 UNK         0.0329 
     23 CB         29.5937   28.5524   -1.1923 C.3       4 UNK        -0.2001 
     24 N          27.6082   27.6303   -0.1008 N.am      4 UNK        -0.4303 
     25 C          26.4818   27.5730    0.6229 C.2       3 UNK         0.5044 
     26 O          26.2149   28.3636    1.5278 O.2       3 UNK        -0.5152 
     27 CA         25.5058   26.4358    0.2969 C.3       3 UNK         0.0319 
     28 CB         24.7488   26.7262   -1.0093 C.3       3 UNK        -0.2001 
     29 N          26.2294   25.1708    0.1785 N.am      3 UNK        -0.4354 
     30 C          26.3379   24.2698    1.1648 C.2       2 UNK         0.4964 
     31 O          25.7063   24.3338    2.2197 O.2       2 UNK        -0.5047 
     32 CA         27.3090   23.0904    0.9560 C.3       2 UNK         0.0288 
     33 CB         26.5365   21.8186    0.5697 C.3       2 UNK        -0.2113 
     34 N          28.3629   23.3264   -0.0372 N.am      2 UNK        -0.4145 
     35 C          29.3146   24.2689    0.0480 C.2       1 UNK         0.5006 
     36 O          29.4072   25.0636    0.9822 O.2       1 UNK        -0.5103 
     37 C          28.8236   28.7489    4.4629 C.2       5 UNK         0.5055 
     38 O          29.3044   29.2795    5.4652 O.2       5 UNK        -0.5220 
     39 N          27.5496   28.9081    4.0750 N.am      6 UNK        -0.4450 
     40 CA         26.5723   29.7652    4.7468 C.3       6 UNK         0.0367 
     41 CB         25.2541   28.9925    4.9197 C.3       6 UNK        -0.1929 
     42 C          26.3362   31.0613    3.9579 C.2       6 UNK         0.5070 
     43 O          26.2455   32.1283    4.5648 O.2       6 UNK        -0.5237 
     44 N          26.2329   30.9540    2.6250 N.am      7 UNK        -0.4739 
     45 CA         25.9788   32.0779    1.7171 C.3       7 UNK         0.0276 
     46 CB         25.4356   31.5365    0.3843 C.3       7 UNK        -0.1927 
     47 C          27.2076   32.9751    1.4803 C.2       7 UNK         0.5013 
     48 O          27.0380   34.1267    1.0769 O.2       7 UNK        -0.5193 
     49 N          28.4089   32.4443    1.7297 N.am      8 UNK        -0.4253 
     50 CA         29.6853   33.1477    1.6584 C.3       8 UNK         0.0242 
     51 CB         30.3208   32.9474    0.2650 C.3       8 UNK        -0.2000 
     52 C          30.5393   32.6691    2.8426 C.2       8 UNK         0.4948 
     53 O          30.0748   32.7590    3.9807 O.2       8 UNK        -0.5275 
     54 N          31.7498   32.1641    2.5767 N.am      9 UNK        -0.4246 
     55 CA         32.6523   31.6029    3.5810 C.3       9 UNK         0.0261 
     56 CB         33.4600   32.7303    4.2580 C.3       9 UNK        -0.1959 
     57 C          33.5413   30.5111    2.9653 C.2       9 UNK         0.5033 
     58 O          34.7468   30.4933    3.2218 O.2       9 UNK        -0.5390 
     59 N          32.9470   29.6058    2.1693 N.am      10 UNK        -0.4215 
     60 CA         33.6584   28.5176    1.4718 C.3       10 UNK         0.0240 
     61 CB         32.6897   27.7600    0.5530 C.3       10 UNK        -0.1982 
     62 C          34.4053   27.5230    2.3839 C.2       10 UNK         0.4970 
     63 O          35.3455   26.8761    1.9211 O.2       10 UNK        -0.4916 
     64 N          33.9953   27.4364    3.6551 N.am      11 UNK        -0.4279 
     65 CA         34.6877   26.6914    4.7153 C.3       11 UNK         0.1003 
     66 C          36.0480   27.3179    5.1529 C.2       11 UNK         0.5709 
     67 N          36.3483   28.5698    4.8212 N.am      11 UNK        -0.7358 
     68 O          36.8598   26.6492    5.7873 O.2       11 UNK        -0.4999 
     69 C69        33.7257   26.4712    5.9136 C.3       12 UNK        -0.0954 
     70 S70        34.1540   25.1112    7.0572 S.3       12 UNK        -0.2268 
     71 C71        34.2254   23.6275    5.9903 C.3       12 UNK         0.0203 
     72 H72        28.0931   25.5810   -4.8855 H         1 UNK         0.0888 
     73 H73        28.6643   23.9130   -4.7996 H         1 UNK         0.0888 
     74 H74        27.0287   24.3144   -4.2697 H         1 UNK         0.0888 
     75 H75        30.0491   23.5901   -3.0879 H         1 UNK         0.3017 
     76 H76        30.6860   25.4018   -1.1221 H         1 UNK         0.0873 
     77 H77        31.1406   22.3776   -0.9827 H         1 UNK         0.0745 
     78 H78        32.0862   23.4724   -1.9402 H         1 UNK         0.0745 
     79 H79        31.4989   21.7781    1.1396 H         1 UNK         0.0705 
     80 H80        33.2211   21.7176    1.4023 H         1 UNK         0.0705 
     81 H81        34.2205   22.8289    3.3934 H         1 UNK         0.1334 
     82 H82        31.5520   24.0017    6.5428 H         1 UNK         0.1417 
     83 H83        29.9990   22.9740    2.6859 H         1 UNK         0.1562 
     84 H84        29.2137   24.1162    6.1953 H         1 UNK         0.0748 
     85 H85        28.5505   23.0479    4.9825 H         1 UNK         0.0748 
     86 H86        30.8056   25.9981    3.6878 H         1 UNK         0.0940 
     87 H87        30.3424   26.5898    5.2600 H         1 UNK         0.0940 
     88 H88        30.7022   28.3610    3.5755 H         1 UNK         0.0703 
     89 H89        28.8543   26.8865    1.9124 H         1 UNK         0.3081 
     90 H90        28.1006   29.6362   -0.1311 H         1 UNK         0.0719 
     91 H91        30.3065   29.3778   -1.2060 H         1 UNK         0.0809 
     92 H92        29.0655   28.5699   -2.1458 H         1 UNK         0.0809 
     93 H93        30.1591   27.6236   -1.1430 H         1 UNK         0.0809 
     94 H94        27.7485   26.9366   -0.8341 H         1 UNK         0.2990 
     95 H95        24.7719   26.3829    1.1039 H         1 UNK         0.0690 
     96 H96        24.0173   25.9464   -1.2216 H         1 UNK         0.0788 
     97 H97        25.4204   26.7952   -1.8659 H         1 UNK         0.0788 
     98 H98        24.2063   27.6703   -0.9428 H         1 UNK         0.0788 
     99 H99        26.8036   25.0606   -0.6502 H         1 UNK         0.2993 
    100 H100       27.7947   22.9158    1.9177 H         1 UNK         0.0949 
    101 H101       25.7617   21.5936    1.3044 H         1 UNK         0.0767 
    102 H102       26.0463   21.9233   -0.3991 H         1 UNK         0.0767 
    103 H103       27.1958   20.9516    0.5229 H         1 UNK         0.0767 
    104 H104       28.3483   22.7394   -0.8585 H         1 UNK         0.3013 
    105 H105       27.2345   28.4545    3.2233 H         1 UNK         0.3121 
    106 H106       26.9300   30.0424    5.7408 H         1 UNK         0.0774 
    107 H107       24.5057   29.6061    5.4229 H         1 UNK         0.0815 
    108 H108       24.8337   28.6841    3.9616 H         1 UNK         0.0815 
    109 H109       25.3989   28.0968    5.5239 H         1 UNK         0.0815 
    110 H110       26.2591   30.0261    2.2053 H         1 UNK         0.2987 
    111 H111       25.2054   32.7069    2.1638 H         1 UNK         0.0949 
    112 H112       24.5288   30.9503    0.5345 H         1 UNK         0.0806 
    113 H113       25.1844   32.3525   -0.2947 H         1 UNK         0.0806 
    114 H114       26.1614   30.9031   -0.1242 H         1 UNK         0.0806 
    115 H115       28.4590   31.5014    2.0927 H         1 UNK         0.3010 
    116 H116       29.5239   34.2167    1.8126 H         1 UNK         0.0829 
    117 H117       29.6654   33.3304   -0.5174 H         1 UNK         0.0813 
    118 H118       31.2644   33.4871    0.1769 H         1 UNK         0.0813 
    119 H119       30.5093   31.8964    0.0442 H         1 UNK         0.0813 
    120 H120       32.0522   32.1015    1.6141 H         1 UNK         0.3038 
    121 H121       32.0583   31.1021    4.3491 H         1 UNK         0.0769 
    122 H122       34.0853   33.2615    3.5398 H         1 UNK         0.0811 
    123 H123       34.1157   32.3334    5.0342 H         1 UNK         0.0811 
    124 H124       32.8048   33.4588    4.7356 H         1 UNK         0.0811 
    125 H125       31.9488   29.6937    1.9913 H         1 UNK         0.3204 
    126 H126       34.4150   28.9890    0.8411 H         1 UNK         0.0748 
    127 H127       33.2126   26.9912   -0.0179 H         1 UNK         0.0771 
    128 H128       31.9020   27.2588    1.1161 H         1 UNK         0.0771 
    129 H129       32.2311   28.4348   -0.1669 H         1 UNK         0.0771 
    130 H130       33.2314   28.0223    3.9503 H         1 UNK         0.2980 
    131 H131       34.9277   25.7173    4.2885 H         1 UNK         0.0545 
    132 H132       35.7148   29.1416    4.2714 H         1 UNK         0.3459 
    133 H133       37.2364   28.9491    5.1075 H         1 UNK         0.3459 
    134 H134       33.6320   27.3887    6.4974 H         1 UNK         0.0616 
    135 H135       32.7215   26.2631    5.5459 H         1 UNK         0.0616 
    136 H136       35.1470   23.6695    5.4082 H         1 UNK         0.0634 
    137 H137       34.3136   22.7493    6.6309 H         1 UNK         0.0634 
@<TRIPOS>BOND
     1    1    2 1    
     2    1   72 1    
     3    1   73 1    
     4    1   74 1    
     5    2    3 2    
     6    2    4 am   BACKBONE|DICT|INTERRES
     7    4    5 1    
     8    4   75 1    
     9    5    6 1    
    10    5   35 1    
    11    5   76 1    
    12    6    7 1    
    13    6   77 1    
    14    6   78 1    
    15    7    8 1    
    16    8    9 1    
    17    8   79 1    
    18    8   80 1    
    19    9   10 ar   
    20    9   14 ar   
    21   10   11 ar   
    22   10   81 1    
    23   11   12 ar   
    24   11   71 1    
    25   12   13 ar   
    26   12   82 1    
    27   13   14 ar   
    28   13   15 1    
    29   14   83 1    
    30   15   16 1    
    31   15   84 1    
    32   15   85 1    
    33   16   17 1    
    34   17   18 1    
    35   17   86 1    
    36   17   87 1    
    37   18   19 1    
    38   18   37 1    
    39   18   88 1    
    40   19   20 am   BACKBONE|DICT|INTERRES
    41   19   89 1    
    42   20   21 2    
    43   20   22 1    
    44   22   23 1    
    45   22   24 1    
    46   22   90 1    
    47   23   91 1    
    48   23   92 1    
    49   23   93 1    
    50   24   25 am   BACKBONE|DICT|INTERRES
    51   24   94 1    
    52   25   26 2    
    53   25   27 1    
    54   27   28 1    
    55   27   29 1    
    56   27   95 1    
    57   28   96 1    
    58   28   97 1    
    59   28   98 1    
    60   29   30 am   BACKBONE|DICT|INTERRES
    61   29   99 1    
    62   30   31 2    
    63   30   32 1    
    64   32   33 1    
    65   32   34 1    
    66   32  100 1    
    67   33  101 1    
    68   33  102 1    
    69   33  103 1    
    70   34   35 am   BACKBONE|DICT|INTERRES
    71   34  104 1    
    72   35   36 2    
    73   37   38 2    
    74   37   39 am   BACKBONE|DICT|INTERRES
    75   39   40 1    
    76   39  105 1    
    77   40   41 1    
    78   40   42 1    
    79   40  106 1    
    80   41  107 1    
    81   41  108 1    
    82   41  109 1    
    83   42   43 2    
    84   42   44 am   BACKBONE|DICT|INTERRES
    85   44   45 1    
    86   44  110 1    
    87   45   46 1    
    88   45   47 1    
    89   45  111 1    
    90   46  112 1    
    91   46  113 1    
    92   46  114 1    
    93   47   48 2    
    94   47   49 am   BACKBONE|DICT|INTERRES
    95   49   50 1    
    96   49  115 1    
    97   50   51 1    
    98   50   52 1    
    99   50  116 1    
   100   51  117 1    
   101   51  118 1    
   102   51  119 1    
   103   52   53 2    
   104   52   54 am   BACKBONE|DICT|INTERRES
   105   54   55 1    
   106   54  120 1    
   107   55   56 1    
   108   55   57 1    
   109   55  121 1    
   110   56  122 1    
   111   56  123 1    
   112   56  124 1    
   113   57   58 2    
   114   57   59 am   BACKBONE|DICT|INTERRES
   115   59   60 1    
   116   59  125 1    
   117   60   61 1    
   118   60   62 1    
   119   60  126 1    
   120   61  127 1    
   121   61  128 1    
   122   61  129 1    
   123   62   63 2    
   124   62   64 am   BACKBONE|DICT|INTERRES
   125   64   65 1    
   126   64  130 1    
   127   65   66 1    
   128   65   69 1    
   129   65  131 1    
   130   66   67 am   BACKBONE|DICT|INTERRES
   131   66   68 2    
   132   67  132 1    
   133   67  133 1    
   134   69   70 1    
   135   69  134 1    
   136   69  135 1    
   137   70   71 1    
   138   71  136 1    
   139   71  137 1    
@<TRIPOS>SUBSTRUCTURE
     1 UNK         1 GROUP             0       ****    0 ROOT    
