@<TRIPOS>MOLECULE
3R136
137   139    1
SMALL
USER_CHARGES


@<TRIPOS>ATOM
      1 CA         29.5525   25.2938   -3.0819 C.3       0 UNK        -0.1979 
      2 C          28.7108   24.6252   -2.0061 C.2       0 UNK         0.4864 
      3 O          27.4871   24.7551   -2.0339 O.2       0 UNK        -0.5359 
      4 N          29.3625   23.8986   -1.0830 N.am      1 UNK        -0.4318 
      5 CA         28.8096   23.2348    0.1124 C.3       1 UNK         0.0824 
      6 C6         29.9023   22.3626    0.7872 C.3       12 UNK        -0.0944 
      7 S7         29.4653   21.7645    2.4578 S.3       12 UNK        -0.2672 
      8 C8         30.8560   22.3614    3.4672 C.3       12 UNK         0.0333 
      9 C9         30.7520   23.8498    3.7623 C.ar      12 UNK        -0.0807 
     10 C10        31.5881   24.7622    3.1121 C.ar      12 UNK        -0.0894 
     11 C11        31.5245   26.1237    3.4210 C.ar      12 UNK        -0.0804 
     12 C12        30.6140   26.5719    4.3825 C.ar      12 UNK        -0.0824 
     13 C13        29.7622   25.6709    5.0275 C.ar      12 UNK        -0.0762 
     14 C14        29.8379   24.3106    4.7150 C.ar      12 UNK        -0.0782 
     15 C15        28.7697   26.1604    6.0721 C.3       12 UNK         0.0230 
     16 S16        27.1323   26.4914    5.3461 S.3       12 UNK        -0.2608 
     17 C17        27.4427   28.0284    4.4123 C.3       12 UNK        -0.0989 
     18 CA         27.5627   27.7837    2.8857 C.3       5 UNK         0.0716 
     19 N          26.3223   27.2290    2.3267 N.am      5 UNK        -0.4135 
     20 C          26.2193   26.5915    1.1542 C.2       4 UNK         0.5031 
     21 O          27.1906   26.3339    0.4415 O.2       4 UNK        -0.5229 
     22 CA         24.8015   26.2646    0.6688 C.3       4 UNK         0.0329 
     23 CB         24.0282   27.5716    0.3791 C.3       4 UNK        -0.2001 
     24 N          24.8701   25.4394   -0.5398 N.am      4 UNK        -0.4303 
     25 C          23.8272   24.8296   -1.1206 C.2       3 UNK         0.5044 
     26 O          22.6855   24.8321   -0.6576 O.2       3 UNK        -0.5152 
     27 CA         24.0908   24.0942   -2.4418 C.3       3 UNK         0.0319 
     28 CB         24.4239   25.0846   -3.5713 C.3       3 UNK        -0.2001 
     29 N          25.1789   23.1329   -2.2877 N.am      3 UNK        -0.4354 
     30 C          25.0115   21.8373   -1.9872 C.2       2 UNK         0.4964 
     31 O          23.9101   21.2940   -1.8904 O.2       2 UNK        -0.5047 
     32 CA         26.2772   20.9885   -1.7556 C.3       2 UNK         0.0288 
     33 CB         26.6495   20.2194   -3.0339 C.3       2 UNK        -0.2113 
     34 N          27.4402   21.7566   -1.3045 N.am      2 UNK        -0.4145 
     35 C          27.5190   22.4190   -0.1403 C.2       1 UNK         0.5006 
     36 O          26.6192   22.4228    0.7022 O.2       1 UNK        -0.5103 
     37 C          27.9813   29.0636    2.1209 C.2       5 UNK         0.5055 
     38 O          27.9993   30.1541    2.6935 O.2       5 UNK        -0.5220 
     39 N          28.2737   28.9108    0.8229 N.am      6 UNK        -0.4450 
     40 CA         28.5153   29.9876   -0.1422 C.3       6 UNK         0.0367 
     41 CB         28.5959   29.3771   -1.5511 C.3       6 UNK        -0.1929 
     42 C          29.7610   30.8454    0.1413 C.2       6 UNK         0.5070 
     43 O          29.7965   32.0040   -0.2736 O.2       6 UNK        -0.5237 
     44 N          30.7512   30.2706    0.8336 N.am      7 UNK        -0.4739 
     45 CA         32.0117   30.9197    1.1984 C.3       7 UNK         0.0276 
     46 CB         33.1701   30.2368    0.4459 C.3       7 UNK        -0.1927 
     47 C          32.2100   30.9070    2.7217 C.2       7 UNK         0.5013 
     48 O          33.3300   30.6919    3.1869 O.2       7 UNK        -0.5193 
     49 N          31.1271   31.1277    3.4845 N.am      8 UNK        -0.4253 
     50 CA         31.0968   31.1059    4.9558 C.3       8 UNK         0.0242 
     51 CB         29.6928   31.4891    5.4496 C.3       8 UNK        -0.2000 
     52 C          32.1525   31.9922    5.6431 C.2       8 UNK         0.4948 
     53 O          32.6625   31.6110    6.6959 O.2       8 UNK        -0.5275 
     54 N          32.4947   33.1283    5.0195 N.am      9 UNK        -0.4246 
     55 CA         33.5554   34.0376    5.4625 C.3       9 UNK         0.0261 
     56 CB         33.4882   35.3316    4.6350 C.3       9 UNK        -0.1959 
     57 C          34.9711   33.4301    5.3955 C.2       9 UNK         0.5033 
     58 O          35.8379   33.8625    6.1568 O.2       9 UNK        -0.5390 
     59 N          35.1851   32.4556    4.5003 N.am      10 UNK        -0.4215 
     60 CA         36.4353   31.7082    4.3678 C.3       10 UNK         0.0240 
     61 CB         36.7158   31.4293    2.8811 C.3       10 UNK        -0.1982 
     62 C          36.3751   30.3967    5.1635 C.2       10 UNK         0.4970 
     63 O          37.3444   30.0662    5.8478 O.2       10 UNK        -0.4916 
     64 N          35.2513   29.6745    5.0564 N.am      11 UNK        -0.4279 
     65 CA         35.0168   28.3939    5.7408 C.3       11 UNK         0.1003 
     66 C          34.8742   28.5029    7.2850 C.2       11 UNK         0.5709 
     67 N          34.3793   29.6051    7.8337 N.am      11 UNK        -0.7358 
     68 O          35.2301   27.5688    7.9997 O.2       11 UNK        -0.4999 
     69 C69        33.8170   27.6276    5.1308 C.3       12 UNK        -0.0954 
     70 S70        34.1210   27.1129    3.4073 S.3       12 UNK        -0.2268 
     71 C71        32.4381   27.1125    2.7150 C.3       12 UNK         0.0203 
     72 H72        29.3853   26.3704   -3.0684 H         1 UNK         0.0888 
     73 H73        30.6179   25.1139   -2.9405 H         1 UNK         0.0888 
     74 H74        29.2705   24.9178   -4.0649 H         1 UNK         0.0888 
     75 H75        30.3671   23.8376   -1.1643 H         1 UNK         0.3017 
     76 H76        28.5438   24.0363    0.8046 H         1 UNK         0.0873 
     77 H77        30.8292   22.9328    0.8597 H         1 UNK         0.0745 
     78 H78        30.1397   21.4967    0.1661 H         1 UNK         0.0745 
     79 H79        30.8631   21.8114    4.4094 H         1 UNK         0.0705 
     80 H80        31.7990   22.1228    2.9726 H         1 UNK         0.0705 
     81 H81        32.3010   24.4143    2.3770 H         1 UNK         0.1334 
     82 H82        30.5675   27.6235    4.6274 H         1 UNK         0.1417 
     83 H83        29.1856   23.6071    5.2150 H         1 UNK         0.1562 
     84 H84        29.1433   27.0559    6.5713 H         1 UNK         0.0748 
     85 H85        28.6591   25.4065    6.8530 H         1 UNK         0.0748 
     86 H86        28.3454   28.5011    4.8003 H         1 UNK         0.0940 
     87 H87        26.6307   28.7265    4.6249 H         1 UNK         0.0940 
     88 H88        28.3581   27.0522    2.7279 H         1 UNK         0.0703 
     89 H89        25.4822   27.4160    2.8540 H         1 UNK         0.3081 
     90 H90        24.2957   25.6974    1.4526 H         1 UNK         0.0719 
     91 H91        23.0000   27.3773    0.0750 H         1 UNK         0.0809 
     92 H92        24.5052   28.1491   -0.4141 H         1 UNK         0.0809 
     93 H93        23.9746   28.2119    1.2601 H         1 UNK         0.0809 
     94 H94        25.8009   25.3567   -0.9452 H         1 UNK         0.2990 
     95 H95        23.1736   23.5730   -2.7250 H         1 UNK         0.0690 
     96 H96        24.5594   24.5673   -4.5212 H         1 UNK         0.0788 
     97 H97        25.3338   25.6502   -3.3679 H         1 UNK         0.0788 
     98 H98        23.6164   25.8052   -3.7066 H         1 UNK         0.0788 
     99 H99        26.1184   23.5254   -2.2868 H         1 UNK         0.2993 
    100 H100       26.0387   20.2627   -0.9751 H         1 UNK         0.0949 
    101 H101       27.4878   19.5439   -2.8619 H         1 UNK         0.0767 
    102 H102       25.8127   19.6118   -3.3816 H         1 UNK         0.0767 
    103 H103       26.9213   20.8950   -3.8462 H         1 UNK         0.0767 
    104 H104       28.2188   21.8233   -1.9436 H         1 UNK         0.3013 
    105 H105       28.1676   27.9722    0.4435 H         1 UNK         0.3121 
    106 H106       27.6515   30.6549   -0.1079 H         1 UNK         0.0774 
    107 H107       28.7330   30.1522   -2.3065 H         1 UNK         0.0815 
    108 H108       29.4318   28.6822   -1.6410 H         1 UNK         0.0815 
    109 H109       27.6828   28.8374   -1.8041 H         1 UNK         0.0815 
    110 H110       30.6204   29.3194    1.1462 H         1 UNK         0.2987 
    111 H111       32.0000   31.9719    0.9065 H         1 UNK         0.0949 
    112 H112       33.2919   29.1958    0.7452 H         1 UNK         0.0806 
    113 H113       33.0093   30.2593   -0.6319 H         1 UNK         0.0806 
    114 H114       34.1162   30.7438    0.6393 H         1 UNK         0.0806 
    115 H115       30.2393   31.2677    3.0191 H         1 UNK         0.3010 
    116 H116       31.2957   30.0781    5.2638 H         1 UNK         0.0829 
    117 H117       28.9367   30.7941    5.0887 H         1 UNK         0.0813 
    118 H118       29.6435   31.4757    6.5395 H         1 UNK         0.0813 
    119 H119       29.4090   32.4900    5.1224 H         1 UNK         0.0813 
    120 H120       32.0172   33.3652    4.1621 H         1 UNK         0.3038 
    121 H121       33.3605   34.2898    6.5072 H         1 UNK         0.0769 
    122 H122       34.2480   36.0432    4.9618 H         1 UNK         0.0811 
    123 H123       32.5209   35.8229    4.7423 H         1 UNK         0.0811 
    124 H124       33.6549   35.1423    3.5738 H         1 UNK         0.0811 
    125 H125       34.4021   32.1108    3.9532 H         1 UNK         0.3204 
    126 H126       37.2658   32.3010    4.7575 H         1 UNK         0.0748 
    127 H127       37.6614   30.8998    2.7570 H         1 UNK         0.0771 
    128 H128       35.9379   30.8150    2.4263 H         1 UNK         0.0771 
    129 H129       36.7859   32.3559    2.3114 H         1 UNK         0.0771 
    130 H130       34.5140   29.9936    4.4339 H         1 UNK         0.2980 
    131 H131       35.9057   27.7826    5.5718 H         1 UNK         0.0545 
    132 H132       33.9927   30.3535    7.2664 H         1 UNK         0.3459 
    133 H133       34.3041   29.6574    8.8364 H         1 UNK         0.3459 
    134 H134       32.9208   28.2474    5.1745 H         1 UNK         0.0616 
    135 H135       33.5973   26.7236    5.7024 H         1 UNK         0.0616 
    136 H136       32.0232   28.1164    2.7759 H         1 UNK         0.0634 
    137 H137       32.4930   26.8671    1.6535 H         1 UNK         0.0634 
@<TRIPOS>BOND
     1    1    2 1    
     2    1   72 1    
     3    1   73 1    
     4    1   74 1    
     5    2    3 2    
     6    2    4 am   BACKBONE|DICT|INTERRES
     7    4    5 1    
     8    4   75 1    
     9    5    6 1    
    10    5   35 1    
    11    5   76 1    
    12    6    7 1    
    13    6   77 1    
    14    6   78 1    
    15    7    8 1    
    16    8    9 1    
    17    8   79 1    
    18    8   80 1    
    19    9   10 ar   
    20    9   14 ar   
    21   10   11 ar   
    22   10   81 1    
    23   11   12 ar   
    24   11   71 1    
    25   12   13 ar   
    26   12   82 1    
    27   13   14 ar   
    28   13   15 1    
    29   14   83 1    
    30   15   16 1    
    31   15   84 1    
    32   15   85 1    
    33   16   17 1    
    34   17   18 1    
    35   17   86 1    
    36   17   87 1    
    37   18   19 1    
    38   18   37 1    
    39   18   88 1    
    40   19   20 am   BACKBONE|DICT|INTERRES
    41   19   89 1    
    42   20   21 2    
    43   20   22 1    
    44   22   23 1    
    45   22   24 1    
    46   22   90 1    
    47   23   91 1    
    48   23   92 1    
    49   23   93 1    
    50   24   25 am   BACKBONE|DICT|INTERRES
    51   24   94 1    
    52   25   26 2    
    53   25   27 1    
    54   27   28 1    
    55   27   29 1    
    56   27   95 1    
    57   28   96 1    
    58   28   97 1    
    59   28   98 1    
    60   29   30 am   BACKBONE|DICT|INTERRES
    61   29   99 1    
    62   30   31 2    
    63   30   32 1    
    64   32   33 1    
    65   32   34 1    
    66   32  100 1    
    67   33  101 1    
    68   33  102 1    
    69   33  103 1    
    70   34   35 am   BACKBONE|DICT|INTERRES
    71   34  104 1    
    72   35   36 2    
    73   37   38 2    
    74   37   39 am   BACKBONE|DICT|INTERRES
    75   39   40 1    
    76   39  105 1    
    77   40   41 1    
    78   40   42 1    
    79   40  106 1    
    80   41  107 1    
    81   41  108 1    
    82   41  109 1    
    83   42   43 2    
    84   42   44 am   BACKBONE|DICT|INTERRES
    85   44   45 1    
    86   44  110 1    
    87   45   46 1    
    88   45   47 1    
    89   45  111 1    
    90   46  112 1    
    91   46  113 1    
    92   46  114 1    
    93   47   48 2    
    94   47   49 am   BACKBONE|DICT|INTERRES
    95   49   50 1    
    96   49  115 1    
    97   50   51 1    
    98   50   52 1    
    99   50  116 1    
   100   51  117 1    
   101   51  118 1    
   102   51  119 1    
   103   52   53 2    
   104   52   54 am   BACKBONE|DICT|INTERRES
   105   54   55 1    
   106   54  120 1    
   107   55   56 1    
   108   55   57 1    
   109   55  121 1    
   110   56  122 1    
   111   56  123 1    
   112   56  124 1    
   113   57   58 2    
   114   57   59 am   BACKBONE|DICT|INTERRES
   115   59   60 1    
   116   59  125 1    
   117   60   61 1    
   118   60   62 1    
   119   60  126 1    
   120   61  127 1    
   121   61  128 1    
   122   61  129 1    
   123   62   63 2    
   124   62   64 am   BACKBONE|DICT|INTERRES
   125   64   65 1    
   126   64  130 1    
   127   65   66 1    
   128   65   69 1    
   129   65  131 1    
   130   66   67 am   BACKBONE|DICT|INTERRES
   131   66   68 2    
   132   67  132 1    
   133   67  133 1    
   134   69   70 1    
   135   69  134 1    
   136   69  135 1    
   137   70   71 1    
   138   71  136 1    
   139   71  137 1    
@<TRIPOS>SUBSTRUCTURE
     1 UNK         1 GROUP             0       ****    0 ROOT    
