@<TRIPOS>MOLECULE
3R136
137   139    1
SMALL
USER_CHARGES


@<TRIPOS>ATOM
      1 CA         31.0367   19.8591   -1.2212 C.3       0 UNK        -0.1979 
      2 C          29.9466   20.8761   -0.9182 C.2       0 UNK         0.4864 
      3 O          28.8993   20.5002   -0.3932 O.2       0 UNK        -0.5359 
      4 N          30.1804   22.1467   -1.2786 N.am      1 UNK        -0.4318 
      5 CA         29.3793   23.3640   -1.0468 C.3       1 UNK         0.0824 
      6 C6         29.4053   23.8487    0.4317 C.3       12 UNK        -0.0944 
      7 S7         28.1843   23.0768    1.5562 S.3       12 UNK        -0.2672 
      8 C8         29.2005   22.6941    3.0173 C.3       12 UNK         0.0333 
      9 C9         29.6023   23.9594    3.7613 C.ar      12 UNK        -0.0807 
     10 C10        30.9470   24.3289    3.8657 C.ar      12 UNK        -0.0894 
     11 C11        31.3170   25.5043    4.5299 C.ar      12 UNK        -0.0804 
     12 C12        30.3158   26.3186    5.0743 C.ar      12 UNK        -0.0824 
     13 C13        28.9680   25.9657    4.9683 C.ar      12 UNK        -0.0762 
     14 C14        28.6202   24.7689    4.3379 C.ar      12 UNK        -0.0782 
     15 C15        27.8876   26.8909    5.5126 C.3       12 UNK         0.0230 
     16 S16        26.7458   27.4647    4.2099 S.3       12 UNK        -0.2608 
     17 C17        27.8767   28.2583    3.0138 C.3       12 UNK        -0.0989 
     18 CA         28.1805   27.3484    1.7912 C.3       5 UNK         0.0716 
     19 N          26.9964   26.8681    1.0625 N.am      5 UNK        -0.4135 
     20 C          26.0397   27.5946    0.4667 C.2       4 UNK         0.5031 
     21 O          26.0113   28.8269    0.4815 O.2       4 UNK        -0.5229 
     22 CA         24.9576   26.8382   -0.3221 C.3       4 UNK         0.0329 
     23 CB         25.1029   27.1204   -1.8273 C.3       4 UNK        -0.2001 
     24 N          25.0064   25.3891   -0.1104 N.am      4 UNK        -0.4303 
     25 C          24.2854   24.7264    0.8064 C.2       3 UNK         0.5044 
     26 O          23.5208   25.2861    1.5935 O.2       3 UNK        -0.5152 
     27 CA         24.4464   23.1915    0.8870 C.3       3 UNK         0.0319 
     28 CB         23.0931   22.4713    1.0668 C.3       3 UNK        -0.2001 
     29 N          25.2193   22.5999   -0.2140 N.am      3 UNK        -0.4354 
     30 C          24.9083   22.5610   -1.5204 C.2       2 UNK         0.4964 
     31 O          23.8384   22.9581   -1.9836 O.2       2 UNK        -0.5047 
     32 CA         26.0014   22.0213   -2.4687 C.3       2 UNK         0.0288 
     33 CB         25.8639   22.5687   -3.9057 C.3       2 UNK        -0.2113 
     34 N          27.3664   22.2357   -1.9645 N.am      2 UNK        -0.4145 
     35 C          27.9561   23.4007   -1.6569 C.2       1 UNK         0.5006 
     36 O          27.4045   24.4941   -1.7967 O.2       1 UNK        -0.5103 
     37 C          29.2242   27.9816    0.8494 C.2       5 UNK         0.5055 
     38 O          30.3727   27.5374    0.8409 O.2       5 UNK        -0.5220 
     39 N          28.8002   28.9772    0.0569 N.am      6 UNK        -0.4450 
     40 CA         29.5191   29.7183   -0.9890 C.3       6 UNK         0.0367 
     41 CB         29.9681   28.7832   -2.1292 C.3       6 UNK        -0.1929 
     42 C          30.6883   30.5752   -0.4740 C.2       6 UNK         0.5070 
     43 O          30.7092   31.7814   -0.7163 O.2       6 UNK        -0.5237 
     44 N          31.6228   29.9503    0.2468 N.am      7 UNK        -0.4739 
     45 CA         32.8053   30.5651    0.8496 C.3       7 UNK         0.0276 
     46 CB         34.0119   29.6357    0.6219 C.3       7 UNK        -0.1927 
     47 C          32.5793   30.8566    2.3434 C.2       7 UNK         0.5013 
     48 O          33.5216   30.7592    3.1296 O.2       7 UNK        -0.5193 
     49 N          31.3412   31.2136    2.7191 N.am      8 UNK        -0.4253 
     50 CA         30.8727   31.4083    4.0983 C.3       8 UNK         0.0242 
     51 CB         29.4154   31.8955    4.0768 C.3       8 UNK        -0.2000 
     52 C          31.7406   32.3466    4.9586 C.2       8 UNK         0.4948 
     53 O          31.9134   32.0854    6.1493 O.2       8 UNK        -0.5275 
     54 N          32.3051   33.3897    4.3338 N.am      9 UNK        -0.4246 
     55 CA         33.2389   34.3324    4.9555 C.3       9 UNK         0.0261 
     56 CB         33.4441   35.5325    4.0168 C.3       9 UNK        -0.1959 
     57 C          34.5970   33.7101    5.3361 C.2       9 UNK         0.5033 
     58 O          35.2333   34.2020    6.2694 O.2       9 UNK        -0.5390 
     59 N          35.0196   32.6571    4.6221 N.am      10 UNK        -0.4215 
     60 CA         36.2232   31.8809    4.9239 C.3       10 UNK         0.0240 
     61 CB         36.8443   31.3521    3.6201 C.3       10 UNK        -0.1982 
     62 C          35.9050   30.7250    5.8839 C.2       10 UNK         0.4970 
     63 O          36.7139   30.4463    6.7700 O.2       10 UNK        -0.4916 
     64 N          34.7417   30.0833    5.7001 N.am      11 UNK        -0.4279 
     65 CA         34.2207   29.0239    6.5781 C.3       11 UNK         0.1003 
     66 C          33.9553   29.5030    8.0327 C.2       11 UNK         0.5709 
     67 N          33.3665   30.6765    8.2304 N.am      11 UNK        -0.7358 
     68 O          34.2876   28.8034    8.9865 O.2       11 UNK        -0.4999 
     69 C69        32.9465   28.3587    6.0001 C.3       12 UNK        -0.0954 
     70 S70        33.1952   27.6049    4.3549 S.3       12 UNK        -0.2268 
     71 C71        32.8003   25.8510    4.6705 C.3       12 UNK         0.0203 
     72 H72        31.9045   20.3172   -1.6953 H         1 UNK         0.0888 
     73 H73        31.3676   19.3810   -0.2997 H         1 UNK         0.0888 
     74 H74        30.6543   19.0863   -1.8876 H         1 UNK         0.0888 
     75 H75        31.0535   22.3310   -1.7537 H         1 UNK         0.3017 
     76 H76        29.9206   24.1227   -1.6149 H         1 UNK         0.0873 
     77 H77        30.4090   23.7267    0.8413 H         1 UNK         0.0745 
     78 H78        29.2234   24.9225    0.4516 H         1 UNK         0.0745 
     79 H79        30.0738   22.1163    2.7105 H         1 UNK         0.0705 
     80 H80        28.6266   22.0535    3.6881 H         1 UNK         0.0705 
     81 H81        31.7088   23.6960    3.4312 H         1 UNK         0.1334 
     82 H82        30.5764   27.2369    5.5763 H         1 UNK         0.1417 
     83 H83        27.5780   24.4919    4.2520 H         1 UNK         0.1562 
     84 H84        28.3268   27.7606    6.0040 H         1 UNK         0.0748 
     85 H85        27.3164   26.3618    6.2764 H         1 UNK         0.0748 
     86 H86        28.8017   28.5314    3.5257 H         1 UNK         0.0940 
     87 H87        27.4233   29.1983    2.6962 H         1 UNK         0.0940 
     88 H88        28.6528   26.4462    2.1776 H         1 UNK         0.0703 
     89 H89        26.9315   25.8652    0.9694 H         1 UNK         0.3081 
     90 H90        23.9890   27.2257    0.0007 H         1 UNK         0.0719 
     91 H91        26.0757   26.8057   -2.2069 H         1 UNK         0.0809 
     92 H92        24.3355   26.6030   -2.4036 H         1 UNK         0.0809 
     93 H93        25.0016   28.1860   -2.0375 H         1 UNK         0.0809 
     94 H94        25.6271   24.8684   -0.7212 H         1 UNK         0.2990 
     95 H95        25.0328   23.0069    1.7882 H         1 UNK         0.0690 
     96 H96        23.2242   21.3916    1.1381 H         1 UNK         0.0788 
     97 H97        22.4113   22.6738    0.2404 H         1 UNK         0.0788 
     98 H98        22.5955   22.7958    1.9815 H         1 UNK         0.0788 
     99 H99        26.1342   22.2565    0.0501 H         1 UNK         0.2993 
    100 H100       25.8561   20.9407   -2.5090 H         1 UNK         0.0949 
    101 H101       25.9304   23.6570   -3.9321 H         1 UNK         0.0767 
    102 H102       26.6404   22.1692   -4.5580 H         1 UNK         0.0767 
    103 H103       24.9032   22.2912   -4.3414 H         1 UNK         0.0767 
    104 H104       27.8722   21.4000   -1.6794 H         1 UNK         0.3013 
    105 H105       27.8180   29.2270    0.1606 H         1 UNK         0.3121 
    106 H106       28.7878   30.4108   -1.4094 H         1 UNK         0.0774 
    107 H107       30.4253   29.3515   -2.9403 H         1 UNK         0.0815 
    108 H108       30.7024   28.0497   -1.7949 H         1 UNK         0.0815 
    109 H109       29.1222   28.2400   -2.5507 H         1 UNK         0.0815 
    110 H110       31.4584   28.9670    0.4589 H         1 UNK         0.2987 
    111 H111       33.0187   31.5204    0.3655 H         1 UNK         0.0949 
    112 H112       33.8921   28.6872    1.1477 H         1 UNK         0.0806 
    113 H113       34.1513   29.4179   -0.4370 H         1 UNK         0.0806 
    114 H114       34.9346   30.0938    0.9798 H         1 UNK         0.0806 
    115 H115       30.6460   31.2921    1.9913 H         1 UNK         0.3010 
    116 H116       30.8887   30.4271    4.5737 H         1 UNK         0.0829 
    117 H117       29.0289   32.0145    5.0902 H         1 UNK         0.0813 
    118 H118       29.3191   32.8598    3.5761 H         1 UNK         0.0813 
    119 H119       28.7638   31.1866    3.5667 H         1 UNK         0.0813 
    120 H120       32.1060   33.5225    3.3529 H         1 UNK         0.3038 
    121 H121       32.7794   34.6954    5.8775 H         1 UNK         0.0769 
    122 H122       34.1129   36.2685    4.4656 H         1 UNK         0.0811 
    123 H123       32.5020   36.0398    3.8079 H         1 UNK         0.0811 
    124 H124       33.8837   35.2312    3.0651 H         1 UNK         0.0811 
    125 H125       34.4046   32.2617    3.9164 H         1 UNK         0.3204 
    126 H126       36.9609   32.5260    5.4063 H         1 UNK         0.0748 
    127 H127       37.7746   30.8199    3.8224 H         1 UNK         0.0771 
    128 H128       36.1808   30.6583    3.1033 H         1 UNK         0.0771 
    129 H129       37.0787   32.1661    2.9340 H         1 UNK         0.0771 
    130 H130       34.1673   30.3258    4.8990 H         1 UNK         0.2980 
    131 H131       34.9937   28.2551    6.6357 H         1 UNK         0.0545 
    132 H132       33.0149   31.2205    7.4469 H         1 UNK         0.3459 
    133 H133       33.1977   30.9902    9.1723 H         1 UNK         0.3459 
    134 H134       32.5864   27.5934    6.6898 H         1 UNK         0.0616 
    135 H135       32.1442   29.0919    5.9207 H         1 UNK         0.0616 
    136 H136       33.1479   25.5624    5.6631 H         1 UNK         0.0634 
    137 H137       33.3849   25.2601    3.9639 H         1 UNK         0.0634 
@<TRIPOS>BOND
     1    1    2 1    
     2    1   72 1    
     3    1   73 1    
     4    1   74 1    
     5    2    3 2    
     6    2    4 am   BACKBONE|DICT|INTERRES
     7    4    5 1    
     8    4   75 1    
     9    5    6 1    
    10    5   35 1    
    11    5   76 1    
    12    6    7 1    
    13    6   77 1    
    14    6   78 1    
    15    7    8 1    
    16    8    9 1    
    17    8   79 1    
    18    8   80 1    
    19    9   10 ar   
    20    9   14 ar   
    21   10   11 ar   
    22   10   81 1    
    23   11   12 ar   
    24   11   71 1    
    25   12   13 ar   
    26   12   82 1    
    27   13   14 ar   
    28   13   15 1    
    29   14   83 1    
    30   15   16 1    
    31   15   84 1    
    32   15   85 1    
    33   16   17 1    
    34   17   18 1    
    35   17   86 1    
    36   17   87 1    
    37   18   19 1    
    38   18   37 1    
    39   18   88 1    
    40   19   20 am   BACKBONE|DICT|INTERRES
    41   19   89 1    
    42   20   21 2    
    43   20   22 1    
    44   22   23 1    
    45   22   24 1    
    46   22   90 1    
    47   23   91 1    
    48   23   92 1    
    49   23   93 1    
    50   24   25 am   BACKBONE|DICT|INTERRES
    51   24   94 1    
    52   25   26 2    
    53   25   27 1    
    54   27   28 1    
    55   27   29 1    
    56   27   95 1    
    57   28   96 1    
    58   28   97 1    
    59   28   98 1    
    60   29   30 am   BACKBONE|DICT|INTERRES
    61   29   99 1    
    62   30   31 2    
    63   30   32 1    
    64   32   33 1    
    65   32   34 1    
    66   32  100 1    
    67   33  101 1    
    68   33  102 1    
    69   33  103 1    
    70   34   35 am   BACKBONE|DICT|INTERRES
    71   34  104 1    
    72   35   36 2    
    73   37   38 2    
    74   37   39 am   BACKBONE|DICT|INTERRES
    75   39   40 1    
    76   39  105 1    
    77   40   41 1    
    78   40   42 1    
    79   40  106 1    
    80   41  107 1    
    81   41  108 1    
    82   41  109 1    
    83   42   43 2    
    84   42   44 am   BACKBONE|DICT|INTERRES
    85   44   45 1    
    86   44  110 1    
    87   45   46 1    
    88   45   47 1    
    89   45  111 1    
    90   46  112 1    
    91   46  113 1    
    92   46  114 1    
    93   47   48 2    
    94   47   49 am   BACKBONE|DICT|INTERRES
    95   49   50 1    
    96   49  115 1    
    97   50   51 1    
    98   50   52 1    
    99   50  116 1    
   100   51  117 1    
   101   51  118 1    
   102   51  119 1    
   103   52   53 2    
   104   52   54 am   BACKBONE|DICT|INTERRES
   105   54   55 1    
   106   54  120 1    
   107   55   56 1    
   108   55   57 1    
   109   55  121 1    
   110   56  122 1    
   111   56  123 1    
   112   56  124 1    
   113   57   58 2    
   114   57   59 am   BACKBONE|DICT|INTERRES
   115   59   60 1    
   116   59  125 1    
   117   60   61 1    
   118   60   62 1    
   119   60  126 1    
   120   61  127 1    
   121   61  128 1    
   122   61  129 1    
   123   62   63 2    
   124   62   64 am   BACKBONE|DICT|INTERRES
   125   64   65 1    
   126   64  130 1    
   127   65   66 1    
   128   65   69 1    
   129   65  131 1    
   130   66   67 am   BACKBONE|DICT|INTERRES
   131   66   68 2    
   132   67  132 1    
   133   67  133 1    
   134   69   70 1    
   135   69  134 1    
   136   69  135 1    
   137   70   71 1    
   138   71  136 1    
   139   71  137 1    
@<TRIPOS>SUBSTRUCTURE
     1 UNK         1 GROUP             0       ****    0 ROOT    
