@<TRIPOS>MOLECULE
3R136
137   139    1
SMALL
USER_CHARGES


@<TRIPOS>ATOM
      1 CA         34.0242   19.5843   -1.4833 C.3       0 UNK        -0.1979 
      2 C          34.0094   20.5747   -0.3280 C.2       0 UNK         0.4864 
      3 O          35.0729   21.0017    0.1254 O.2       0 UNK        -0.5359 
      4 N          32.8144   20.9344    0.1564 N.am      1 UNK        -0.4318 
      5 CA         32.6006   21.9306    1.2098 C.3       1 UNK         0.0824 
      6 C6         31.2296   21.7353    1.9089 C.3       12 UNK        -0.0944 
      7 S7         29.7832   21.8213    0.7918 S.3       12 UNK        -0.2672 
      8 C8         28.4255   21.3837    1.9245 C.3       12 UNK         0.0333 
      9 C9         27.8320   22.6093    2.6066 C.ar      12 UNK        -0.0807 
     10 C10        28.4789   23.1936    3.6972 C.ar      12 UNK        -0.0894 
     11 C11        27.9457   24.3222    4.3252 C.ar      12 UNK        -0.0804 
     12 C12        26.7201   24.8391    3.8889 C.ar      12 UNK        -0.0824 
     13 C13        26.0424   24.2406    2.8196 C.ar      12 UNK        -0.0762 
     14 C14        26.6155   23.1418    2.1693 C.ar      12 UNK        -0.0782 
     15 C15        24.6648   24.7323    2.3957 C.3       12 UNK         0.0230 
     16 S16        24.7418   26.2732    1.4300 S.3       12 UNK        -0.2608 
     17 C17        24.0695   27.5022    2.6127 C.3       12 UNK        -0.0989 
     18 CA         24.8770   28.8218    2.6720 C.3       5 UNK         0.0716 
     19 N          26.2873   28.5598    2.9430 N.am      5 UNK        -0.4135 
     20 C          27.2045   29.4715    3.2808 C.2       4 UNK         0.5031 
     21 O          26.9283   30.6317    3.5867 O.2       4 UNK        -0.5229 
     22 CA         28.6760   29.0141    3.2758 C.3       4 UNK         0.0329 
     23 CB         29.2045   28.9571    4.7166 C.3       4 UNK        -0.2001 
     24 N          28.9425   27.7218    2.6220 N.am      4 UNK        -0.4303 
     25 C          28.6705   27.3997    1.3481 C.2       3 UNK         0.5044 
     26 O          28.0777   28.1472    0.5671 O.2       3 UNK        -0.5152 
     27 CA         29.0985   25.9916    0.8986 C.3       3 UNK         0.0319 
     28 CB         28.8263   25.7253   -0.5964 C.3       3 UNK        -0.2001 
     29 N          30.4902   25.6826    1.2442 N.am      3 UNK        -0.4354 
     30 C          31.5978   26.3145    0.8202 C.2       2 UNK         0.4964 
     31 O          31.6015   27.2775    0.0560 O.2       2 UNK        -0.5047 
     32 CA         32.9467   25.7635    1.3188 C.3       2 UNK         0.0288 
     33 CB         33.4067   26.5314    2.5671 C.3       2 UNK        -0.2113 
     34 N          32.9110   24.3270    1.6129 N.am      2 UNK        -0.4145 
     35 C          32.7731   23.3714    0.6810 C.2       1 UNK         0.5006 
     36 O          32.7429   23.6001   -0.5321 O.2       1 UNK        -0.5103 
     37 C          24.6539   29.6861    1.4080 C.2       5 UNK         0.5055 
     38 O          23.6250   30.3603    1.3293 O.2       5 UNK        -0.5220 
     39 N          25.5961   29.6541    0.4533 N.am      6 UNK        -0.4450 
     40 CA         25.5388   30.3994   -0.8053 C.3       6 UNK         0.0367 
     41 CB         25.2732   29.4200   -1.9610 C.3       6 UNK        -0.1929 
     42 C          26.8229   31.2020   -1.0632 C.2       6 UNK         0.5070 
     43 O          26.7356   32.3235   -1.5651 O.2       6 UNK        -0.5237 
     44 N          27.9881   30.6256   -0.7435 N.am      7 UNK        -0.4739 
     45 CA         29.3007   31.2419   -0.9377 C.3       7 UNK         0.0276 
     46 CB         30.3550   30.1265   -1.0074 C.3       7 UNK        -0.1927 
     47 C          29.6530   32.2191    0.1946 C.2       7 UNK         0.5013 
     48 O          29.0876   32.1399    1.2869 O.2       7 UNK        -0.5193 
     49 N          30.6292   33.0946   -0.0782 N.am      8 UNK        -0.4253 
     50 CA         31.2198   34.0049    0.9082 C.3       8 UNK         0.0242 
     51 CB         31.8932   35.1758    0.1729 C.3       8 UNK        -0.2000 
     52 C          32.2262   33.3094    1.8461 C.2       8 UNK         0.4948 
     53 O          32.4960   33.8342    2.9275 O.2       8 UNK        -0.5275 
     54 N          32.7785   32.1643    1.4189 N.am      9 UNK        -0.4246 
     55 CA         33.7016   31.3378    2.1973 C.3       9 UNK         0.0261 
     56 CB         34.3831   30.3234    1.2633 C.3       9 UNK        -0.1959 
     57 C          32.9588   30.6133    3.3299 C.2       9 UNK         0.5033 
     58 O          31.9404   29.9736    3.0662 O.2       9 UNK        -0.5390 
     59 N          33.4831   30.7156    4.5566 N.am      10 UNK        -0.4215 
     60 CA         32.9317   30.0629    5.7444 C.3       10 UNK         0.0240 
     61 CB         33.4656   30.7714    7.0004 C.3       10 UNK        -0.1982 
     62 C          33.2875   28.5679    5.7805 C.2       10 UNK         0.4970 
     63 O          34.3919   28.1947    5.3787 O.2       10 UNK        -0.4916 
     64 N          32.3658   27.7547    6.3101 N.am      11 UNK        -0.4279 
     65 CA         32.5526   26.3110    6.5347 C.3       11 UNK         0.1003 
     66 C          33.4227   25.9653    7.7797 C.2       11 UNK         0.5709 
     67 N          33.7642   26.9139    8.6444 N.am      11 UNK        -0.7358 
     68 O          33.8051   24.8114    7.9587 O.2       11 UNK        -0.4999 
     69 C69        31.1945   25.5605    6.5778 C.3       12 UNK        -0.0954 
     70 S70        30.3102   25.5987    4.9849 S.3       12 UNK        -0.2268 
     71 C71        28.6908   24.9414    5.4982 C.3       12 UNK         0.0203 
     72 H72        33.0181   19.2801   -1.7719 H         1 UNK         0.0888 
     73 H73        34.5058   20.0303   -2.3530 H         1 UNK         0.0888 
     74 H74        34.5817   18.6905   -1.2048 H         1 UNK         0.0888 
     75 H75        31.9714   20.5842   -0.2764 H         1 UNK         0.3017 
     76 H76        33.3752   21.7793    1.9653 H         1 UNK         0.0873 
     77 H77        31.1096   22.4679    2.7061 H         1 UNK         0.0745 
     78 H78        31.2182   20.7619    2.4022 H         1 UNK         0.0745 
     79 H79        27.6553   20.8647    1.3522 H         1 UNK         0.0705 
     80 H80        28.7738   20.6702    2.6727 H         1 UNK         0.0705 
     81 H81        29.4037   22.7738    4.0647 H         1 UNK         0.1334 
     82 H82        26.2813   25.6889    4.3938 H         1 UNK         0.1417 
     83 H83        26.0994   22.6813    1.3377 H         1 UNK         0.1562 
     84 H84        24.0297   24.8490    3.2743 H         1 UNK         0.0748 
     85 H85        24.1703   23.9776    1.7821 H         1 UNK         0.0748 
     86 H86        24.0450   27.0703    3.6138 H         1 UNK         0.0940 
     87 H87        23.0255   27.6975    2.3589 H         1 UNK         0.0940 
     88 H88        24.4929   29.4047    3.5120 H         1 UNK         0.0703 
     89 H89        26.6094   27.6358    2.6963 H         1 UNK         0.3081 
     90 H90        29.2422   29.7702    2.7286 H         1 UNK         0.0719 
     91 H91        29.1304   29.9322    5.1997 H         1 UNK         0.0809 
     92 H92        30.2533   28.6683    4.7300 H         1 UNK         0.0809 
     93 H93        28.6478   28.2436    5.3250 H         1 UNK         0.0809 
     94 H94        29.4298   27.0376    3.1851 H         1 UNK         0.2990 
     95 H95        28.4836   25.2936    1.4654 H         1 UNK         0.0690 
     96 H96        29.1128   24.7110   -0.8747 H         1 UNK         0.0788 
     97 H97        29.3711   26.4185   -1.2381 H         1 UNK         0.0788 
     98 H98        27.7652   25.8369   -0.8231 H         1 UNK         0.0788 
     99 H99        30.6129   24.9034    1.8740 H         1 UNK         0.2993 
    100 H100       33.6805   25.9279    0.5264 H         1 UNK         0.0949 
    101 H101       33.4958   27.5976    2.3566 H         1 UNK         0.0767 
    102 H102       32.6971   26.4289    3.3870 H         1 UNK         0.0767 
    103 H103       34.3809   26.1892    2.9166 H         1 UNK         0.0767 
    104 H104       32.9504   24.0638    2.5870 H         1 UNK         0.3013 
    105 H105       26.4193   29.0751    0.5985 H         1 UNK         0.3121 
    106 H106       24.7197   31.1213   -0.7792 H         1 UNK         0.0774 
    107 H107       25.2338   29.9436   -2.9171 H         1 UNK         0.0815 
    108 H108       26.0540   28.6615   -2.0333 H         1 UNK         0.0815 
    109 H109       24.3201   28.9068   -1.8319 H         1 UNK         0.0815 
    110 H110       27.9937   29.7069   -0.3050 H         1 UNK         0.2987 
    111 H111       29.2976   31.7847   -1.8858 H         1 UNK         0.0949 
    112 H112       30.0892   29.3655   -1.7414 H         1 UNK         0.0806 
    113 H113       31.3332   30.5175   -1.2881 H         1 UNK         0.0806 
    114 H114       30.4678   29.6311   -0.0418 H         1 UNK         0.0806 
    115 H115       31.0324   33.1069   -1.0046 H         1 UNK         0.3010 
    116 H116       30.4198   34.4106    1.5318 H         1 UNK         0.0829 
    117 H117       31.1785   35.7212   -0.4439 H         1 UNK         0.0813 
    118 H118       32.3165   35.8892    0.8816 H         1 UNK         0.0813 
    119 H119       32.7054   34.8370   -0.4715 H         1 UNK         0.0813 
    120 H120       32.4681   31.7842    0.5385 H         1 UNK         0.3038 
    121 H121       34.4699   31.9867    2.6234 H         1 UNK         0.0769 
    122 H122       33.6576   29.6578    0.7922 H         1 UNK         0.0811 
    123 H123       35.0868   29.6983    1.8148 H         1 UNK         0.0811 
    124 H124       34.9438   30.8232    0.4734 H         1 UNK         0.0811 
    125 H125       34.3464   31.2243    4.6803 H         1 UNK         0.3204 
    126 H126       31.8457   30.1735    5.7253 H         1 UNK         0.0748 
    127 H127       33.0353   30.3422    7.9061 H         1 UNK         0.0771 
    128 H128       34.5503   30.6871    7.0828 H         1 UNK         0.0771 
    129 H129       33.2110   31.8316    6.9959 H         1 UNK         0.0771 
    130 H130       31.4944   28.1406    6.6405 H         1 UNK         0.2980 
    131 H131       33.1118   25.9147    5.6854 H         1 UNK         0.0545 
    132 H132       33.4616   27.8643    8.5109 H         1 UNK         0.3459 
    133 H133       34.3321   26.6716    9.4410 H         1 UNK         0.3459 
    134 H134       31.3411   24.5092    6.8333 H         1 UNK         0.0616 
    135 H135       30.5521   25.9792    7.3546 H         1 UNK         0.0616 
    136 H136       28.8309   24.1772    6.2640 H         1 UNK         0.0634 
    137 H137       28.1095   25.7420    5.9578 H         1 UNK         0.0634 
@<TRIPOS>BOND
     1    1    2 1    
     2    1   72 1    
     3    1   73 1    
     4    1   74 1    
     5    2    3 2    
     6    2    4 am   BACKBONE|DICT|INTERRES
     7    4    5 1    
     8    4   75 1    
     9    5    6 1    
    10    5   35 1    
    11    5   76 1    
    12    6    7 1    
    13    6   77 1    
    14    6   78 1    
    15    7    8 1    
    16    8    9 1    
    17    8   79 1    
    18    8   80 1    
    19    9   10 ar   
    20    9   14 ar   
    21   10   11 ar   
    22   10   81 1    
    23   11   12 ar   
    24   11   71 1    
    25   12   13 ar   
    26   12   82 1    
    27   13   14 ar   
    28   13   15 1    
    29   14   83 1    
    30   15   16 1    
    31   15   84 1    
    32   15   85 1    
    33   16   17 1    
    34   17   18 1    
    35   17   86 1    
    36   17   87 1    
    37   18   19 1    
    38   18   37 1    
    39   18   88 1    
    40   19   20 am   BACKBONE|DICT|INTERRES
    41   19   89 1    
    42   20   21 2    
    43   20   22 1    
    44   22   23 1    
    45   22   24 1    
    46   22   90 1    
    47   23   91 1    
    48   23   92 1    
    49   23   93 1    
    50   24   25 am   BACKBONE|DICT|INTERRES
    51   24   94 1    
    52   25   26 2    
    53   25   27 1    
    54   27   28 1    
    55   27   29 1    
    56   27   95 1    
    57   28   96 1    
    58   28   97 1    
    59   28   98 1    
    60   29   30 am   BACKBONE|DICT|INTERRES
    61   29   99 1    
    62   30   31 2    
    63   30   32 1    
    64   32   33 1    
    65   32   34 1    
    66   32  100 1    
    67   33  101 1    
    68   33  102 1    
    69   33  103 1    
    70   34   35 am   BACKBONE|DICT|INTERRES
    71   34  104 1    
    72   35   36 2    
    73   37   38 2    
    74   37   39 am   BACKBONE|DICT|INTERRES
    75   39   40 1    
    76   39  105 1    
    77   40   41 1    
    78   40   42 1    
    79   40  106 1    
    80   41  107 1    
    81   41  108 1    
    82   41  109 1    
    83   42   43 2    
    84   42   44 am   BACKBONE|DICT|INTERRES
    85   44   45 1    
    86   44  110 1    
    87   45   46 1    
    88   45   47 1    
    89   45  111 1    
    90   46  112 1    
    91   46  113 1    
    92   46  114 1    
    93   47   48 2    
    94   47   49 am   BACKBONE|DICT|INTERRES
    95   49   50 1    
    96   49  115 1    
    97   50   51 1    
    98   50   52 1    
    99   50  116 1    
   100   51  117 1    
   101   51  118 1    
   102   51  119 1    
   103   52   53 2    
   104   52   54 am   BACKBONE|DICT|INTERRES
   105   54   55 1    
   106   54  120 1    
   107   55   56 1    
   108   55   57 1    
   109   55  121 1    
   110   56  122 1    
   111   56  123 1    
   112   56  124 1    
   113   57   58 2    
   114   57   59 am   BACKBONE|DICT|INTERRES
   115   59   60 1    
   116   59  125 1    
   117   60   61 1    
   118   60   62 1    
   119   60  126 1    
   120   61  127 1    
   121   61  128 1    
   122   61  129 1    
   123   62   63 2    
   124   62   64 am   BACKBONE|DICT|INTERRES
   125   64   65 1    
   126   64  130 1    
   127   65   66 1    
   128   65   69 1    
   129   65  131 1    
   130   66   67 am   BACKBONE|DICT|INTERRES
   131   66   68 2    
   132   67  132 1    
   133   67  133 1    
   134   69   70 1    
   135   69  134 1    
   136   69  135 1    
   137   70   71 1    
   138   71  136 1    
   139   71  137 1    
@<TRIPOS>SUBSTRUCTURE
     1 UNK         1 GROUP             0       ****    0 ROOT    
