@<TRIPOS>MOLECULE
3R136
137   139    1
SMALL
USER_CHARGES


@<TRIPOS>ATOM
      1 CA         29.7178   23.0353   -1.2967 C.3       0 UNK        -0.1979 
      2 C          28.8313   23.8089   -0.3345 C.2       0 UNK         0.4864 
      3 O          28.3576   24.8923   -0.6814 O.2       0 UNK        -0.5359 
      4 N          28.6083   23.2732    0.8728 N.am      1 UNK        -0.4318 
      5 CA         27.7557   23.8631    1.9118 C.3       1 UNK         0.0824 
      6 C6         27.8841   23.1328    3.2752 C.3       12 UNK        -0.0944 
      7 S7         29.6083   22.8631    3.8267 S.3       12 UNK        -0.2672 
      8 C8         30.0390   24.4598    4.5958 C.3       12 UNK         0.0333 
      9 C9         31.2122   25.1340    3.8925 C.ar      12 UNK        -0.0807 
     10 C10        32.3767   25.4642    4.5908 C.ar      12 UNK        -0.0894 
     11 C11        33.4431   26.1088    3.9514 C.ar      12 UNK        -0.0804 
     12 C12        33.3164   26.4489    2.5944 C.ar      12 UNK        -0.0824 
     13 C13        32.1564   26.1242    1.8843 C.ar      12 UNK        -0.0762 
     14 C14        31.1263   25.4484    2.5374 C.ar      12 UNK        -0.0782 
     15 C15        32.0115   26.4771    0.4077 C.3       12 UNK         0.0230 
     16 S16        31.3161   28.1447    0.1553 S.3       12 UNK        -0.2608 
     17 C17        29.6481   27.9948    0.8810 C.3       12 UNK        -0.0989 
     18 CA         28.5121   28.4928   -0.0436 C.3       5 UNK         0.0716 
     19 N          28.3536   27.6313   -1.2101 N.am      5 UNK        -0.4135 
     20 C          27.8952   28.0278   -2.4018 C.2       4 UNK         0.5031 
     21 O          27.6158   29.1956   -2.6767 O.2       4 UNK        -0.5229 
     22 CA         27.6851   26.9313   -3.4515 C.3       4 UNK         0.0329 
     23 CB         29.0284   26.3447   -3.9205 C.3       4 UNK        -0.2001 
     24 N          26.8442   25.8641   -2.9066 N.am      4 UNK        -0.4303 
     25 C          25.7153   25.4140   -3.4683 C.2       3 UNK         0.5044 
     26 O          25.2566   25.8360   -4.5309 O.2       3 UNK        -0.5152 
     27 CA         24.9668   24.2932   -2.7262 C.3       3 UNK         0.0319 
     28 CB         25.5908   22.9253   -3.0466 C.3       3 UNK        -0.2001 
     29 N          24.9229   24.4728   -1.2741 N.am      3 UNK        -0.4354 
     30 C          24.2799   25.4519   -0.6240 C.2       2 UNK         0.4964 
     31 O          23.6411   26.3405   -1.1874 O.2       2 UNK        -0.5047 
     32 CA         24.3584   25.4528    0.9146 C.3       2 UNK         0.0288 
     33 CB         23.2255   24.6154    1.5405 C.3       2 UNK        -0.2113 
     34 N          25.6797   25.0876    1.4442 N.am      2 UNK        -0.4145 
     35 C          26.2917   23.8955    1.4328 C.2       1 UNK         0.5006 
     36 O          25.7739   22.8584    1.0111 O.2       1 UNK        -0.5103 
     37 C          27.1656   28.4982    0.6989 C.2       5 UNK         0.5055 
     38 O          26.9103   27.5808    1.4831 O.2       5 UNK        -0.5220 
     39 N          26.3199   29.5032    0.4234 N.am      6 UNK        -0.4450 
     40 CA         24.9971   29.6883    1.0420 C.3       6 UNK         0.0367 
     41 CB         24.3050   30.9106    0.4189 C.3       6 UNK        -0.1929 
     42 C          25.0513   29.8183    2.5769 C.2       6 UNK         0.5070 
     43 O          24.1640   29.3184    3.2682 O.2       6 UNK        -0.5237 
     44 N          26.1265   30.4394    3.0673 N.am      7 UNK        -0.4739 
     45 CA         26.6375   30.3321    4.4277 C.3       7 UNK         0.0276 
     46 CB         26.4594   31.6741    5.1555 C.3       7 UNK        -0.1927 
     47 C          28.1219   29.9708    4.2834 C.2       7 UNK         0.5013 
     48 O          28.7357   30.3738    3.2902 O.2       7 UNK        -0.5193 
     49 N          28.6640   29.2135    5.2470 N.am      8 UNK        -0.4253 
     50 CA         30.0419   28.7063    5.2399 C.3       8 UNK         0.0242 
     51 CB         30.2765   27.8494    6.4947 C.3       8 UNK        -0.2000 
     52 C          31.0937   29.8266    5.1482 C.2       8 UNK         0.4948 
     53 O          30.9750   30.8344    5.8510 O.2       8 UNK        -0.5275 
     54 N          32.0940   29.6239    4.2832 N.am      9 UNK        -0.4246 
     55 CA         33.1857   30.5666    4.0406 C.3       9 UNK         0.0261 
     56 CB         33.8492   30.2140    2.6983 C.3       9 UNK        -0.1959 
     57 C          34.2215   30.5586    5.1774 C.2       9 UNK         0.5033 
     58 O          34.2554   29.6312    5.9912 O.2       9 UNK        -0.5390 
     59 N          35.0917   31.5757    5.1863 N.am      10 UNK        -0.4215 
     60 CA         36.2245   31.7055    6.1065 C.3       10 UNK         0.0240 
     61 CB         36.6397   33.1875    6.1821 C.3       10 UNK        -0.1982 
     62 C          37.3896   30.7806    5.6977 C.2       10 UNK         0.4970 
     63 O          38.4610   31.2636    5.3260 O.2       10 UNK        -0.4916 
     64 N          37.1460   29.4656    5.7495 N.am      11 UNK        -0.4279 
     65 CA         38.1075   28.4081    5.3955 C.3       11 UNK         0.1003 
     66 C          39.3050   28.2558    6.3800 C.2       11 UNK         0.5709 
     67 N          39.2571   28.8176    7.5826 N.am      11 UNK        -0.7358 
     68 O          40.2998   27.6184    6.0415 O.2       11 UNK        -0.4999 
     69 C69        37.4088   27.0401    5.1751 C.3       12 UNK        -0.0954 
     70 S70        36.1296   27.0780    3.8734 S.3       12 UNK        -0.2268 
     71 C71        34.6982   26.3953    4.7804 C.3       12 UNK         0.0203 
     72 H72        29.1848   22.8485   -2.2289 H         1 UNK         0.0888 
     73 H73        30.6131   23.6128   -1.5264 H         1 UNK         0.0888 
     74 H74        30.0274   22.0754   -0.8829 H         1 UNK         0.0888 
     75 H75        29.0126   22.3775    1.1058 H         1 UNK         0.3017 
     76 H76        28.0745   24.8964    2.0562 H         1 UNK         0.0873 
     77 H77        27.4148   22.1483    3.2189 H         1 UNK         0.0745 
     78 H78        27.3421   23.6750    4.0523 H         1 UNK         0.0745 
     79 H79        30.2690   24.2856    5.6480 H         1 UNK         0.0705 
     80 H80        29.1831   25.1357    4.5782 H         1 UNK         0.0705 
     81 H81        32.4588   25.2121    5.6396 H         1 UNK         0.1334 
     82 H82        34.1163   26.9537    2.0730 H         1 UNK         0.1417 
     83 H83        30.2496   25.1586    1.9857 H         1 UNK         0.1562 
     84 H84        31.3819   25.7455   -0.1010 H         1 UNK         0.0748 
     85 H85        32.9864   26.4267   -0.0796 H         1 UNK         0.0748 
     86 H86        29.6595   28.5472    1.8196 H         1 UNK         0.0940 
     87 H87        29.4495   26.9601    1.1452 H         1 UNK         0.0940 
     88 H88        28.7484   29.5124   -0.3561 H         1 UNK         0.0703 
     89 H89        28.4961   26.6364   -1.0440 H         1 UNK         0.3081 
     90 H90        27.2013   27.3988   -4.3117 H         1 UNK         0.0719 
     91 H91        29.6827   27.1273   -4.3070 H         1 UNK         0.0809 
     92 H92        29.5608   25.8425   -3.1118 H         1 UNK         0.0809 
     93 H93        28.8818   25.6199   -4.7213 H         1 UNK         0.0809 
     94 H94        27.1540   25.4509   -2.0306 H         1 UNK         0.2990 
     95 H95        23.9366   24.2898   -3.0885 H         1 UNK         0.0690 
     96 H96        25.0120   22.1127   -2.6069 H         1 UNK         0.0788 
     97 H97        26.6123   22.8495   -2.6722 H         1 UNK         0.0788 
     98 H98        25.6236   22.7531   -4.1234 H         1 UNK         0.0788 
     99 H99        25.3841   23.7691   -0.7066 H         1 UNK         0.2993 
    100 H100       24.2038   26.4854    1.2294 H         1 UNK         0.0949 
    101 H101       23.2680   23.5698    1.2349 H         1 UNK         0.0767 
    102 H102       23.2626   24.6499    2.6293 H         1 UNK         0.0767 
    103 H103       22.2504   24.9986    1.2369 H         1 UNK         0.0767 
    104 H104       26.2359   25.9017    1.7060 H         1 UNK         0.3013 
    105 H105       26.5949   30.1844   -0.2711 H         1 UNK         0.3121 
    106 H106       24.3997   28.8057    0.8075 H         1 UNK         0.0774 
    107 H107       23.3120   31.0556    0.8468 H         1 UNK         0.0815 
    108 H108       24.8704   31.8274    0.5903 H         1 UNK         0.0815 
    109 H109       24.1770   30.7892   -0.6569 H         1 UNK         0.0815 
    110 H110       26.8259   30.7598    2.4084 H         1 UNK         0.2987 
    111 H111       26.1222   29.5374    4.9723 H         1 UNK         0.0949 
    112 H112       25.4075   31.9537    5.2157 H         1 UNK         0.0806 
    113 H113       26.8408   31.6184    6.1759 H         1 UNK         0.0806 
    114 H114       26.9921   32.4812    4.6506 H         1 UNK         0.0806 
    115 H115       28.0971   28.9602    6.0430 H         1 UNK         0.3010 
    116 H116       30.1430   28.0626    4.3631 H         1 UNK         0.0829 
    117 H117       29.6044   26.9918    6.5250 H         1 UNK         0.0813 
    118 H118       31.2964   27.4629    6.5176 H         1 UNK         0.0813 
    119 H119       30.1298   28.4268    7.4085 H         1 UNK         0.0813 
    120 H120       32.1436   28.7453    3.7877 H         1 UNK         0.3038 
    121 H121       32.7622   31.5708    3.9686 H         1 UNK         0.0769 
    122 H122       34.6059   30.9498    2.4239 H         1 UNK         0.0811 
    123 H123       33.1199   30.1872    1.8881 H         1 UNK         0.0811 
    124 H124       34.3427   29.2436    2.7366 H         1 UNK         0.0811 
    125 H125       35.0204   32.2791    4.4645 H         1 UNK         0.3204 
    126 H126       35.9038   31.4017    7.1057 H         1 UNK         0.0748 
    127 H127       37.4678   33.3259    6.8788 H         1 UNK         0.0771 
    128 H128       36.9618   33.5696    5.2123 H         1 UNK         0.0771 
    129 H129       35.8176   33.8121    6.5325 H         1 UNK         0.0771 
    130 H130       36.2118   29.1661    6.0101 H         1 UNK         0.2980 
    131 H131       38.5515   28.6982    4.4412 H         1 UNK         0.0545 
    132 H132       40.0410   28.7139    8.2074 H         1 UNK         0.3459 
    133 H133       38.4453   29.3388    7.8719 H         1 UNK         0.3459 
    134 H134       38.1376   26.2818    4.8820 H         1 UNK         0.0616 
    135 H135       36.9706   26.6908    6.1119 H         1 UNK         0.0616 
    136 H136       35.0144   25.4625    5.2502 H         1 UNK         0.0634 
    137 H137       34.4369   27.0758    5.5906 H         1 UNK         0.0634 
@<TRIPOS>BOND
     1    1    2 1    
     2    1   72 1    
     3    1   73 1    
     4    1   74 1    
     5    2    3 2    
     6    2    4 am   BACKBONE|DICT|INTERRES
     7    4    5 1    
     8    4   75 1    
     9    5    6 1    
    10    5   35 1    
    11    5   76 1    
    12    6    7 1    
    13    6   77 1    
    14    6   78 1    
    15    7    8 1    
    16    8    9 1    
    17    8   79 1    
    18    8   80 1    
    19    9   10 ar   
    20    9   14 ar   
    21   10   11 ar   
    22   10   81 1    
    23   11   12 ar   
    24   11   71 1    
    25   12   13 ar   
    26   12   82 1    
    27   13   14 ar   
    28   13   15 1    
    29   14   83 1    
    30   15   16 1    
    31   15   84 1    
    32   15   85 1    
    33   16   17 1    
    34   17   18 1    
    35   17   86 1    
    36   17   87 1    
    37   18   19 1    
    38   18   37 1    
    39   18   88 1    
    40   19   20 am   BACKBONE|DICT|INTERRES
    41   19   89 1    
    42   20   21 2    
    43   20   22 1    
    44   22   23 1    
    45   22   24 1    
    46   22   90 1    
    47   23   91 1    
    48   23   92 1    
    49   23   93 1    
    50   24   25 am   BACKBONE|DICT|INTERRES
    51   24   94 1    
    52   25   26 2    
    53   25   27 1    
    54   27   28 1    
    55   27   29 1    
    56   27   95 1    
    57   28   96 1    
    58   28   97 1    
    59   28   98 1    
    60   29   30 am   BACKBONE|DICT|INTERRES
    61   29   99 1    
    62   30   31 2    
    63   30   32 1    
    64   32   33 1    
    65   32   34 1    
    66   32  100 1    
    67   33  101 1    
    68   33  102 1    
    69   33  103 1    
    70   34   35 am   BACKBONE|DICT|INTERRES
    71   34  104 1    
    72   35   36 2    
    73   37   38 2    
    74   37   39 am   BACKBONE|DICT|INTERRES
    75   39   40 1    
    76   39  105 1    
    77   40   41 1    
    78   40   42 1    
    79   40  106 1    
    80   41  107 1    
    81   41  108 1    
    82   41  109 1    
    83   42   43 2    
    84   42   44 am   BACKBONE|DICT|INTERRES
    85   44   45 1    
    86   44  110 1    
    87   45   46 1    
    88   45   47 1    
    89   45  111 1    
    90   46  112 1    
    91   46  113 1    
    92   46  114 1    
    93   47   48 2    
    94   47   49 am   BACKBONE|DICT|INTERRES
    95   49   50 1    
    96   49  115 1    
    97   50   51 1    
    98   50   52 1    
    99   50  116 1    
   100   51  117 1    
   101   51  118 1    
   102   51  119 1    
   103   52   53 2    
   104   52   54 am   BACKBONE|DICT|INTERRES
   105   54   55 1    
   106   54  120 1    
   107   55   56 1    
   108   55   57 1    
   109   55  121 1    
   110   56  122 1    
   111   56  123 1    
   112   56  124 1    
   113   57   58 2    
   114   57   59 am   BACKBONE|DICT|INTERRES
   115   59   60 1    
   116   59  125 1    
   117   60   61 1    
   118   60   62 1    
   119   60  126 1    
   120   61  127 1    
   121   61  128 1    
   122   61  129 1    
   123   62   63 2    
   124   62   64 am   BACKBONE|DICT|INTERRES
   125   64   65 1    
   126   64  130 1    
   127   65   66 1    
   128   65   69 1    
   129   65  131 1    
   130   66   67 am   BACKBONE|DICT|INTERRES
   131   66   68 2    
   132   67  132 1    
   133   67  133 1    
   134   69   70 1    
   135   69  134 1    
   136   69  135 1    
   137   70   71 1    
   138   71  136 1    
   139   71  137 1    
@<TRIPOS>SUBSTRUCTURE
     1 UNK         1 GROUP             0       ****    0 ROOT    
