@<TRIPOS>MOLECULE
3R136
137   139    1
SMALL
USER_CHARGES


@<TRIPOS>ATOM
      1 CA         29.5667   27.2864   -4.1685 C.3       0 UNK        -0.1979 
      2 C          28.7558   26.5901   -3.0871 C.2       0 UNK         0.4864 
      3 O          27.5803   26.9057   -2.9049 O.2       0 UNK        -0.5359 
      4 N          29.3651   25.6281   -2.3795 N.am      1 UNK        -0.4318 
      5 CA         28.7935   24.9107   -1.2256 C.3       1 UNK         0.0824 
      6 C6         29.8668   24.1134   -0.4443 C.3       12 UNK        -0.0944 
      7 S7         31.3031   25.1403    0.0134 S.3       12 UNK        -0.2672 
      8 C8         32.1370   24.0602    1.2126 C.3       12 UNK         0.0333 
      9 C9         31.6912   24.3527    2.6367 C.ar      12 UNK        -0.0807 
     10 C10        32.2203   25.4570    3.3091 C.ar      12 UNK        -0.0894 
     11 C11        31.8821   25.7099    4.6404 C.ar      12 UNK        -0.0804 
     12 C12        30.9933   24.8531    5.2974 C.ar      12 UNK        -0.0824 
     13 C13        30.4445   23.7509    4.6309 C.ar      12 UNK        -0.0762 
     14 C14        30.7961   23.5064    3.2987 C.ar      12 UNK        -0.0782 
     15 C15        29.5051   22.7999    5.3642 C.3       12 UNK         0.0230 
     16 S16        27.7735   22.9535    4.8148 S.3       12 UNK        -0.2608 
     17 C17        27.4156   24.6998    5.1968 C.3       12 UNK        -0.0989 
     18 CA         27.3324   25.5391    3.8976 C.3       5 UNK         0.0716 
     19 N          26.1106   25.2298    3.1499 N.am      5 UNK        -0.4135 
     20 C          25.8244   25.6377    1.9076 C.2       4 UNK         0.5031 
     21 O          26.5930   26.3049    1.2117 O.2       4 UNK        -0.5229 
     22 CA         24.4529   25.1793    1.3735 C.3       4 UNK         0.0329 
     23 CB         23.2846   25.7736    2.1909 C.3       4 UNK        -0.2001 
     24 N          24.2740   25.4079   -0.0654 N.am      4 UNK        -0.4303 
     25 C          24.0957   26.5622   -0.7263 C.2       3 UNK         0.5044 
     26 O          23.9820   27.6626   -0.1830 O.2       3 UNK        -0.5152 
     27 CA         24.0156   26.4583   -2.2653 C.3       3 UNK         0.0319 
     28 CB         24.2249   27.8167   -2.9608 C.3       3 UNK        -0.2001 
     29 N          24.9975   25.5037   -2.7862 N.am      3 UNK        -0.4354 
     30 C          24.7809   24.1940   -2.9879 C.2       2 UNK         0.4964 
     31 O          23.6837   23.6567   -2.8394 O.2       2 UNK        -0.5047 
     32 CA         25.9959   23.3200   -3.3597 C.3       2 UNK         0.0288 
     33 CB         26.0869   23.1416   -4.8836 C.3       2 UNK        -0.2113 
     34 N          27.2598   23.8668   -2.8614 N.am      2 UNK        -0.4145 
     35 C          27.5766   24.0172   -1.5660 C.2       1 UNK         0.5006 
     36 O          26.9244   23.5071   -0.6534 O.2       1 UNK        -0.5103 
     37 C          27.4681   27.0442    4.2038 C.2       5 UNK         0.5055 
     38 O          26.4757   27.7764    4.2001 O.2       5 UNK        -0.5220 
     39 N          28.7148   27.4543    4.4799 N.am      6 UNK        -0.4450 
     40 CA         29.1785   28.8293    4.7149 C.3       6 UNK         0.0367 
     41 CB         28.4050   29.5313    5.8511 C.3       6 UNK        -0.1929 
     42 C          29.2621   29.6801    3.4332 C.2       6 UNK         0.5070 
     43 O          29.4588   30.8920    3.5234 O.2       6 UNK        -0.5237 
     44 N          29.2002   29.0380    2.2559 N.am      7 UNK        -0.4739 
     45 CA         29.4336   29.6620    0.9466 C.3       7 UNK         0.0276 
     46 CB         29.0802   28.6609   -0.1628 C.3       7 UNK        -0.1927 
     47 C          30.8763   30.1743    0.7694 C.2       7 UNK         0.5013 
     48 O          31.0979   31.1167    0.0097 O.2       7 UNK        -0.5193 
     49 N          31.8179   29.5725    1.5103 N.am      8 UNK        -0.4253 
     50 CA         33.2139   29.9975    1.6328 C.3       8 UNK         0.0242 
     51 CB         34.0832   28.7630    1.9312 C.3       8 UNK        -0.2000 
     52 C          33.4263   31.1082    2.6856 C.2       8 UNK         0.4948 
     53 O          34.5780   31.3849    3.0274 O.2       8 UNK        -0.5275 
     54 N          32.3399   31.7173    3.1917 N.am      9 UNK        -0.4246 
     55 CA         32.2933   32.8339    4.1422 C.3       9 UNK         0.0261 
     56 CB         32.8026   34.1349    3.4807 C.3       9 UNK        -0.1959 
     57 C          32.9959   32.4940    5.4674 C.2       9 UNK         0.5033 
     58 O          32.3971   31.8261    6.3114 O.2       9 UNK        -0.5390 
     59 N          34.2526   32.9356    5.6150 N.am      10 UNK        -0.4215 
     60 CA         35.1304   32.6333    6.7481 C.3       10 UNK         0.0240 
     61 CB         36.3841   33.5195    6.6636 C.3       10 UNK        -0.1982 
     62 C          35.5260   31.1474    6.8473 C.2       10 UNK         0.4970 
     63 O          35.8972   30.7078    7.9362 O.2       10 UNK        -0.4916 
     64 N          35.4346   30.4067    5.7318 N.am      11 UNK        -0.4279 
     65 CA         35.6978   28.9611    5.6406 C.3       11 UNK         0.1003 
     66 C          37.2010   28.5642    5.7804 C.2       11 UNK         0.5709 
     67 N          38.1413   29.4882    5.6185 N.am      11 UNK        -0.7358 
     68 O          37.5298   27.4030    6.0106 O.2       11 UNK        -0.4999 
     69 C69        34.7369   28.1344    6.5508 C.3       12 UNK        -0.0954 
     70 S70        34.2345   26.5467    5.8085 S.3       12 UNK        -0.2268 
     71 C71        32.5040   26.8917    5.3686 C.3       12 UNK         0.0203 
     72 H72        29.0910   27.1522   -5.1395 H         1 UNK         0.0888 
     73 H73        29.6239   28.3547   -3.9615 H         1 UNK         0.0888 
     74 H74        30.5831   26.8979   -4.2302 H         1 UNK         0.0888 
     75 H75        30.3331   25.4127   -2.5737 H         1 UNK         0.3017 
     76 H76        28.4083   25.6772   -0.5516 H         1 UNK         0.0873 
     77 H77        30.2226   23.2659   -1.0333 H         1 UNK         0.0745 
     78 H78        29.4370   23.6996    0.4703 H         1 UNK         0.0745 
     79 H79        31.9696   23.0129    0.9560 H         1 UNK         0.0705 
     80 H80        33.2134   24.2203    1.1342 H         1 UNK         0.0705 
     81 H81        32.9224   26.1030    2.8010 H         1 UNK         0.1334 
     82 H82        30.7431   25.0342    6.3342 H         1 UNK         0.1417 
     83 H83        30.3852   22.6469    2.7862 H         1 UNK         0.1562 
     84 H84        29.5524   22.9629    6.4422 H         1 UNK         0.0748 
     85 H85        29.8350   21.7730    5.2005 H         1 UNK         0.0748 
     86 H86        28.1809   25.0754    5.8779 H         1 UNK         0.0940 
     87 H87        26.4796   24.7563    5.7558 H         1 UNK         0.0940 
     88 H88        28.1742   25.2740    3.2530 H         1 UNK         0.0703 
     89 H89        25.4237   24.6833    3.6465 H         1 UNK         0.3081 
     90 H90        24.4232   24.0950    1.4919 H         1 UNK         0.0719 
     91 H91        23.3255   26.8628    2.2252 H         1 UNK         0.0809 
     92 H92        22.3198   25.4870    1.7724 H         1 UNK         0.0809 
     93 H93        23.3026   25.4215    3.2225 H         1 UNK         0.0809 
     94 H94        24.3848   24.5803   -0.6348 H         1 UNK         0.2990 
     95 H95        23.0079   26.1156   -2.5090 H         1 UNK         0.0690 
     96 H96        24.1720   27.7198   -4.0452 H         1 UNK         0.0788 
     97 H97        25.1936   28.2509   -2.7099 H         1 UNK         0.0788 
     98 H98        23.4581   28.5329   -2.6629 H         1 UNK         0.0788 
     99 H99        25.9416   25.8700   -2.8895 H         1 UNK         0.2993 
    100 H100       25.8487   22.3390   -2.9026 H         1 UNK         0.0949 
    101 H101       26.9014   22.4703   -5.1569 H         1 UNK         0.0767 
    102 H102       25.1666   22.7107   -5.2809 H         1 UNK         0.0767 
    103 H103       26.2483   24.0926   -5.3932 H         1 UNK         0.0767 
    104 H104       27.8591   24.3122   -3.5407 H         1 UNK         0.3013 
    105 H105       29.4469   26.7562    4.4675 H         1 UNK         0.3121 
    106 H106       30.2085   28.7331    5.0584 H         1 UNK         0.0774 
    107 H107       28.9015   30.4583    6.1414 H         1 UNK         0.0815 
    108 H108       27.3895   29.7936    5.5541 H         1 UNK         0.0815 
    109 H109       28.3467   28.9046    6.7407 H         1 UNK         0.0815 
    110 H110       28.9998   28.0483    2.2559 H         1 UNK         0.2987 
    111 H111       28.7668   30.5229    0.8608 H         1 UNK         0.0949 
    112 H112       29.7173   27.7771   -0.1250 H         1 UNK         0.0806 
    113 H113       28.0432   28.3313   -0.0901 H         1 UNK         0.0806 
    114 H114       29.2053   29.1106   -1.1487 H         1 UNK         0.0806 
    115 H115       31.5282   28.8002    2.0912 H         1 UNK         0.3010 
    116 H116       33.5388   30.4098    0.6752 H         1 UNK         0.0829 
    117 H117       33.9509   27.9915    1.1722 H         1 UNK         0.0813 
    118 H118       35.1431   29.0211    1.9425 H         1 UNK         0.0813 
    119 H119       33.8443   28.3267    2.8995 H         1 UNK         0.0813 
    120 H120       31.4275   31.3736    2.9143 H         1 UNK         0.3038 
    121 H121       31.2404   32.9841    4.3869 H         1 UNK         0.0769 
    122 H122       32.1711   34.4114    2.6363 H         1 UNK         0.0811 
    123 H123       33.8228   34.0454    3.1063 H         1 UNK         0.0811 
    124 H124       32.7779   34.9694    4.1830 H         1 UNK         0.0811 
    125 H125       34.6650   33.4392    4.8425 H         1 UNK         0.3204 
    126 H126       34.5917   32.8863    7.6636 H         1 UNK         0.0748 
    127 H127       36.1238   34.5781    6.6811 H         1 UNK         0.0771 
    128 H128       37.0488   33.3382    7.5097 H         1 UNK         0.0771 
    129 H129       36.9545   33.3281    5.7538 H         1 UNK         0.0771 
    130 H130       35.1549   30.8575    4.8657 H         1 UNK         0.2980 
    131 H131       35.4573   28.7236    4.6052 H         1 UNK         0.0545 
    132 H132       37.8909   30.4425    5.4165 H         1 UNK         0.3459 
    133 H133       39.1107   29.2252    5.7010 H         1 UNK         0.3459 
    134 H134       33.8306   28.7041    6.7631 H         1 UNK         0.0616 
    135 H135       35.1893   27.9416    7.5252 H         1 UNK         0.0616 
    136 H136       31.9428   27.1239    6.2752 H         1 UNK         0.0634 
    137 H137       32.4595   27.7800    4.7380 H         1 UNK         0.0634 
@<TRIPOS>BOND
     1    1    2 1    
     2    1   72 1    
     3    1   73 1    
     4    1   74 1    
     5    2    3 2    
     6    2    4 am   BACKBONE|DICT|INTERRES
     7    4    5 1    
     8    4   75 1    
     9    5    6 1    
    10    5   35 1    
    11    5   76 1    
    12    6    7 1    
    13    6   77 1    
    14    6   78 1    
    15    7    8 1    
    16    8    9 1    
    17    8   79 1    
    18    8   80 1    
    19    9   10 ar   
    20    9   14 ar   
    21   10   11 ar   
    22   10   81 1    
    23   11   12 ar   
    24   11   71 1    
    25   12   13 ar   
    26   12   82 1    
    27   13   14 ar   
    28   13   15 1    
    29   14   83 1    
    30   15   16 1    
    31   15   84 1    
    32   15   85 1    
    33   16   17 1    
    34   17   18 1    
    35   17   86 1    
    36   17   87 1    
    37   18   19 1    
    38   18   37 1    
    39   18   88 1    
    40   19   20 am   BACKBONE|DICT|INTERRES
    41   19   89 1    
    42   20   21 2    
    43   20   22 1    
    44   22   23 1    
    45   22   24 1    
    46   22   90 1    
    47   23   91 1    
    48   23   92 1    
    49   23   93 1    
    50   24   25 am   BACKBONE|DICT|INTERRES
    51   24   94 1    
    52   25   26 2    
    53   25   27 1    
    54   27   28 1    
    55   27   29 1    
    56   27   95 1    
    57   28   96 1    
    58   28   97 1    
    59   28   98 1    
    60   29   30 am   BACKBONE|DICT|INTERRES
    61   29   99 1    
    62   30   31 2    
    63   30   32 1    
    64   32   33 1    
    65   32   34 1    
    66   32  100 1    
    67   33  101 1    
    68   33  102 1    
    69   33  103 1    
    70   34   35 am   BACKBONE|DICT|INTERRES
    71   34  104 1    
    72   35   36 2    
    73   37   38 2    
    74   37   39 am   BACKBONE|DICT|INTERRES
    75   39   40 1    
    76   39  105 1    
    77   40   41 1    
    78   40   42 1    
    79   40  106 1    
    80   41  107 1    
    81   41  108 1    
    82   41  109 1    
    83   42   43 2    
    84   42   44 am   BACKBONE|DICT|INTERRES
    85   44   45 1    
    86   44  110 1    
    87   45   46 1    
    88   45   47 1    
    89   45  111 1    
    90   46  112 1    
    91   46  113 1    
    92   46  114 1    
    93   47   48 2    
    94   47   49 am   BACKBONE|DICT|INTERRES
    95   49   50 1    
    96   49  115 1    
    97   50   51 1    
    98   50   52 1    
    99   50  116 1    
   100   51  117 1    
   101   51  118 1    
   102   51  119 1    
   103   52   53 2    
   104   52   54 am   BACKBONE|DICT|INTERRES
   105   54   55 1    
   106   54  120 1    
   107   55   56 1    
   108   55   57 1    
   109   55  121 1    
   110   56  122 1    
   111   56  123 1    
   112   56  124 1    
   113   57   58 2    
   114   57   59 am   BACKBONE|DICT|INTERRES
   115   59   60 1    
   116   59  125 1    
   117   60   61 1    
   118   60   62 1    
   119   60  126 1    
   120   61  127 1    
   121   61  128 1    
   122   61  129 1    
   123   62   63 2    
   124   62   64 am   BACKBONE|DICT|INTERRES
   125   64   65 1    
   126   64  130 1    
   127   65   66 1    
   128   65   69 1    
   129   65  131 1    
   130   66   67 am   BACKBONE|DICT|INTERRES
   131   66   68 2    
   132   67  132 1    
   133   67  133 1    
   134   69   70 1    
   135   69  134 1    
   136   69  135 1    
   137   70   71 1    
   138   71  136 1    
   139   71  137 1    
@<TRIPOS>SUBSTRUCTURE
     1 UNK         1 GROUP             0       ****    0 ROOT    
