@<TRIPOS>MOLECULE
3R136
137   139    1
SMALL
USER_CHARGES


@<TRIPOS>ATOM
      1 CA         28.9535   20.8711    3.9145 C.3       0 UNK        -0.1979 
      2 C          28.7476   20.7187    2.4148 C.2       0 UNK         0.4864 
      3 O          28.7140   19.5938    1.9147 O.2       0 UNK        -0.5359 
      4 N          28.5981   21.8440    1.7050 N.am      1 UNK        -0.4318 
      5 CA         28.3838   21.9168    0.2530 C.3       1 UNK         0.0824 
      6 C6         29.4962   22.7295   -0.4739 C.3       12 UNK        -0.0944 
      7 S7         31.1701   22.0256   -0.2303 S.3       12 UNK        -0.2672 
      8 C8         32.2588   23.5046   -0.2276 C.3       12 UNK         0.0333 
      9 C9         32.0879   24.4812    0.9412 C.ar      12 UNK        -0.0807 
     10 C10        32.7821   25.6967    0.9213 C.ar      12 UNK        -0.0894 
     11 C11        32.5961   26.6478    1.9329 C.ar      12 UNK        -0.0804 
     12 C12        31.6788   26.3936    2.9572 C.ar      12 UNK        -0.0824 
     13 C13        30.9666   25.1928    2.9770 C.ar      12 UNK        -0.0762 
     14 C14        31.2260   24.2233    2.0096 C.ar      12 UNK        -0.0782 
     15 C15        29.8253   24.9696    3.9535 C.3       12 UNK         0.0230 
     16 S16        28.2362   24.9164    3.0479 S.3       12 UNK        -0.2608 
     17 C17        28.0438   26.6615    2.5496 C.3       12 UNK        -0.0989 
     18 CA         28.6471   27.0152    1.1618 C.3       5 UNK         0.0716 
     19 N          27.9131   26.4462    0.0216 N.am      5 UNK        -0.4135 
     20 C          28.3576   26.5239   -1.2483 C.2       4 UNK         0.5031 
     21 O          29.4983   26.8858   -1.5399 O.2       4 UNK        -0.5229 
     22 CA         27.3884   26.2078   -2.4049 C.3       4 UNK         0.0329 
     23 CB         27.9498   25.1356   -3.3542 C.3       4 UNK        -0.2001 
     24 N          26.0425   25.8350   -1.9708 N.am      4 UNK        -0.4303 
     25 C          25.1106   26.7078   -1.5582 C.2       3 UNK         0.5044 
     26 O          25.2899   27.9256   -1.5138 O.2       3 UNK        -0.5152 
     27 CA         23.7704   26.1286   -1.0658 C.3       3 UNK         0.0319 
     28 CB         22.7329   26.1372   -2.1996 C.3       3 UNK        -0.2001 
     29 N          23.8750   24.7730   -0.5150 N.am      3 UNK        -0.4354 
     30 C          24.6386   24.4280    0.5311 C.2       2 UNK         0.4964 
     31 O          25.3235   25.2348    1.1615 O.2       2 UNK        -0.5047 
     32 CA         24.6887   22.9385    0.9214 C.3       2 UNK         0.0288 
     33 CB         23.8034   22.0173    0.0493 C.3       2 UNK        -0.2113 
     34 N          26.0705   22.4442    0.9528 N.am      2 UNK        -0.4145 
     35 C          26.9652   22.4548   -0.0517 C.2       1 UNK         0.5006 
     36 O          26.7010   22.8659   -1.1827 O.2       1 UNK        -0.5103 
     37 C          28.7871   28.5490    1.0394 C.2       5 UNK         0.5055 
     38 O          29.8353   29.0816    1.4055 O.2       5 UNK        -0.5220 
     39 N          27.7391   29.2163    0.5214 N.am      6 UNK        -0.4450 
     40 CA         27.6306   30.6637    0.3020 C.3       6 UNK         0.0367 
     41 CB         28.5091   31.0832   -0.8989 C.3       6 UNK        -0.1929 
     42 C          27.9031   31.4542    1.5984 C.2       6 UNK         0.5070 
     43 O          27.2363   31.2039    2.6053 O.2       6 UNK        -0.5237 
     44 N          28.8894   32.3600    1.5773 N.am      7 UNK        -0.4739 
     45 CA         29.4342   33.0355    2.7556 C.3       7 UNK         0.0276 
     46 CB         30.1729   34.3098    2.3063 C.3       7 UNK        -0.1927 
     47 C          30.3482   32.0710    3.5341 C.2       7 UNK         0.5013 
     48 O          31.5728   32.1950    3.4699 O.2       7 UNK        -0.5193 
     49 N          29.7275   31.1092    4.2333 N.am      8 UNK        -0.4253 
     50 CA         30.3606   29.9680    4.9086 C.3       8 UNK         0.0242 
     51 CB         29.2855   29.1607    5.6526 C.3       8 UNK        -0.2000 
     52 C          31.5101   30.3235    5.8666 C.2       8 UNK         0.4948 
     53 O          32.4477   29.5362    6.0005 O.2       8 UNK        -0.5275 
     54 N          31.4496   31.5202    6.4678 N.am      9 UNK        -0.4246 
     55 CA         32.4912   32.1131    7.3115 C.3       9 UNK         0.0261 
     56 CB         31.9844   33.4567    7.8607 C.3       9 UNK        -0.1959 
     57 C          33.8555   32.2975    6.6158 C.2       9 UNK         0.5033 
     58 O          34.8648   32.3974    7.3149 O.2       9 UNK        -0.5390 
     59 N          33.8818   32.3199    5.2733 N.am      10 UNK        -0.4215 
     60 CA         35.1105   32.3128    4.4750 C.3       10 UNK         0.0240 
     61 CB         34.7745   32.6467    3.0126 C.3       10 UNK        -0.1982 
     62 C          35.8762   30.9782    4.5555 C.2       10 UNK         0.4970 
     63 O          37.0988   30.9891    4.4045 O.2       10 UNK        -0.4916 
     64 N          35.1595   29.8706    4.7893 N.am      11 UNK        -0.4279 
     65 CA         35.7275   28.5276    4.9760 C.3       11 UNK         0.1003 
     66 C          35.7642   28.1207    6.4721 C.2       11 UNK         0.5709 
     67 N          34.7632   28.4718    7.2706 N.am      11 UNK        -0.7358 
     68 O          36.7184   27.4866    6.9162 O.2       11 UNK        -0.4999 
     69 C69        34.9762   27.4604    4.1412 C.3       12 UNK        -0.0954 
     70 S70        35.0937   27.7740    2.3472 S.3       12 UNK        -0.2268 
     71 C71        33.3448   27.9727    1.8864 C.3       12 UNK         0.0203 
     72 H72        29.9872   20.6461    4.1752 H         1 UNK         0.0888 
     73 H73        28.7256   21.8801    4.2567 H         1 UNK         0.0888 
     74 H74        28.3071   20.1807    4.4558 H         1 UNK         0.0888 
     75 H75        28.5978   22.7380    2.1812 H         1 UNK         0.3017 
     76 H76        28.3977   20.9107   -0.1709 H         1 UNK         0.0873 
     77 H77        29.4800   23.7725   -0.1537 H         1 UNK         0.0745 
     78 H78        29.3171   22.7388   -1.5494 H         1 UNK         0.0745 
     79 H79        33.2940   23.1612   -0.2381 H         1 UNK         0.0705 
     80 H80        32.1026   24.0429   -1.1637 H         1 UNK         0.0705 
     81 H81        33.4620   25.9123    0.1083 H         1 UNK         0.1334 
     82 H82        31.4875   27.1457    3.7090 H         1 UNK         0.1417 
     83 H83        30.6864   23.2942    2.0608 H         1 UNK         0.1562 
     84 H84        29.7946   25.7491    4.7164 H         1 UNK         0.0748 
     85 H85        29.9772   24.0264    4.4796 H         1 UNK         0.0748 
     86 H86        28.5031   27.2685    3.3306 H         1 UNK         0.0940 
     87 H87        26.9810   26.9086    2.5749 H         1 UNK         0.0940 
     88 H88        29.6575   26.6122    1.1073 H         1 UNK         0.0703 
     89 H89        26.9830   26.0904    0.2142 H         1 UNK         0.3081 
     90 H90        27.3065   27.1294   -2.9854 H         1 UNK         0.0719 
     91 H91        27.2882   24.9748   -4.2054 H         1 UNK         0.0809 
     92 H92        28.0895   24.1797   -2.8556 H         1 UNK         0.0809 
     93 H93        28.9197   25.4351   -3.7537 H         1 UNK         0.0809 
     94 H94        25.8463   24.8424   -1.9164 H         1 UNK         0.2990 
     95 H95        23.4101   26.7801   -0.2670 H         1 UNK         0.0690 
     96 H96        21.7527   25.8186   -1.8443 H         1 UNK         0.0788 
     97 H97        23.0247   25.4793   -3.0193 H         1 UNK         0.0788 
     98 H98        22.6150   27.1401   -2.6128 H         1 UNK         0.0788 
     99 H99        23.3575   24.0465   -0.9886 H         1 UNK         0.2993 
    100 H100       24.3158   22.8857    1.9455 H         1 UNK         0.0949 
    101 H101       23.8552   20.9861    0.3993 H         1 UNK         0.0767 
    102 H102       22.7544   22.3129    0.0969 H         1 UNK         0.0767 
    103 H103       24.1069   22.0206   -0.9984 H         1 UNK         0.0767 
    104 H104       26.3879   22.1052    1.8492 H         1 UNK         0.3013 
    105 H105       26.9214   28.6821    0.2589 H         1 UNK         0.3121 
    106 H106       26.5906   30.8610    0.0380 H         1 UNK         0.0774 
    107 H107       28.3791   32.1397   -1.1373 H         1 UNK         0.0815 
    108 H108       29.5697   30.9062   -0.7154 H         1 UNK         0.0815 
    109 H109       28.2361   30.5222   -1.7929 H         1 UNK         0.0815 
    110 H110       29.4120   32.4683    0.7201 H         1 UNK         0.2987 
    111 H111       28.6155   33.3344    3.4142 H         1 UNK         0.0949 
    112 H112       30.9943   34.0853    1.6244 H         1 UNK         0.0806 
    113 H113       29.4985   35.0022    1.8021 H         1 UNK         0.0806 
    114 H114       30.5963   34.8363    3.1627 H         1 UNK         0.0806 
    115 H115       28.7181   31.0721    4.1455 H         1 UNK         0.3010 
    116 H116       30.7809   29.3415    4.1204 H         1 UNK         0.0829 
    117 H117       28.4671   28.8770    4.9922 H         1 UNK         0.0813 
    118 H118       29.7041   28.2424    6.0671 H         1 UNK         0.0813 
    119 H119       28.8589   29.7280    6.4809 H         1 UNK         0.0813 
    120 H120       30.6400   32.0942    6.2824 H         1 UNK         0.3038 
    121 H121       32.6512   31.4357    8.1529 H         1 UNK         0.0769 
    122 H122       32.7237   33.9129    8.5208 H         1 UNK         0.0811 
    123 H123       31.0705   33.3305    8.4415 H         1 UNK         0.0811 
    124 H124       31.7801   34.1684    7.0597 H         1 UNK         0.0811 
    125 H125       33.0070   32.2556    4.7561 H         1 UNK         0.3204 
    126 H126       35.7675   33.0953    4.8606 H         1 UNK         0.0748 
    127 H127       35.6810   32.7153    2.4097 H         1 UNK         0.0771 
    128 H128       34.1400   31.8828    2.5607 H         1 UNK         0.0771 
    129 H129       34.2565   33.6026    2.9312 H         1 UNK         0.0771 
    130 H130       34.1651   29.9509    4.9641 H         1 UNK         0.2980 
    131 H131       36.7643   28.5226    4.6342 H         1 UNK         0.0545 
    132 H132       33.9370   28.9260    6.8902 H         1 UNK         0.3459 
    133 H133       34.7933   28.2124    8.2431 H         1 UNK         0.3459 
    134 H134       33.9296   27.4119    4.4455 H         1 UNK         0.0616 
    135 H135       35.3922   26.4679    4.3237 H         1 UNK         0.0616 
    136 H136       32.8775   28.7132    2.5383 H         1 UNK         0.0634 
    137 H137       33.2899   28.3805    0.8761 H         1 UNK         0.0634 
@<TRIPOS>BOND
     1    1    2 1    
     2    1   72 1    
     3    1   73 1    
     4    1   74 1    
     5    2    3 2    
     6    2    4 am   BACKBONE|DICT|INTERRES
     7    4    5 1    
     8    4   75 1    
     9    5    6 1    
    10    5   35 1    
    11    5   76 1    
    12    6    7 1    
    13    6   77 1    
    14    6   78 1    
    15    7    8 1    
    16    8    9 1    
    17    8   79 1    
    18    8   80 1    
    19    9   10 ar   
    20    9   14 ar   
    21   10   11 ar   
    22   10   81 1    
    23   11   12 ar   
    24   11   71 1    
    25   12   13 ar   
    26   12   82 1    
    27   13   14 ar   
    28   13   15 1    
    29   14   83 1    
    30   15   16 1    
    31   15   84 1    
    32   15   85 1    
    33   16   17 1    
    34   17   18 1    
    35   17   86 1    
    36   17   87 1    
    37   18   19 1    
    38   18   37 1    
    39   18   88 1    
    40   19   20 am   BACKBONE|DICT|INTERRES
    41   19   89 1    
    42   20   21 2    
    43   20   22 1    
    44   22   23 1    
    45   22   24 1    
    46   22   90 1    
    47   23   91 1    
    48   23   92 1    
    49   23   93 1    
    50   24   25 am   BACKBONE|DICT|INTERRES
    51   24   94 1    
    52   25   26 2    
    53   25   27 1    
    54   27   28 1    
    55   27   29 1    
    56   27   95 1    
    57   28   96 1    
    58   28   97 1    
    59   28   98 1    
    60   29   30 am   BACKBONE|DICT|INTERRES
    61   29   99 1    
    62   30   31 2    
    63   30   32 1    
    64   32   33 1    
    65   32   34 1    
    66   32  100 1    
    67   33  101 1    
    68   33  102 1    
    69   33  103 1    
    70   34   35 am   BACKBONE|DICT|INTERRES
    71   34  104 1    
    72   35   36 2    
    73   37   38 2    
    74   37   39 am   BACKBONE|DICT|INTERRES
    75   39   40 1    
    76   39  105 1    
    77   40   41 1    
    78   40   42 1    
    79   40  106 1    
    80   41  107 1    
    81   41  108 1    
    82   41  109 1    
    83   42   43 2    
    84   42   44 am   BACKBONE|DICT|INTERRES
    85   44   45 1    
    86   44  110 1    
    87   45   46 1    
    88   45   47 1    
    89   45  111 1    
    90   46  112 1    
    91   46  113 1    
    92   46  114 1    
    93   47   48 2    
    94   47   49 am   BACKBONE|DICT|INTERRES
    95   49   50 1    
    96   49  115 1    
    97   50   51 1    
    98   50   52 1    
    99   50  116 1    
   100   51  117 1    
   101   51  118 1    
   102   51  119 1    
   103   52   53 2    
   104   52   54 am   BACKBONE|DICT|INTERRES
   105   54   55 1    
   106   54  120 1    
   107   55   56 1    
   108   55   57 1    
   109   55  121 1    
   110   56  122 1    
   111   56  123 1    
   112   56  124 1    
   113   57   58 2    
   114   57   59 am   BACKBONE|DICT|INTERRES
   115   59   60 1    
   116   59  125 1    
   117   60   61 1    
   118   60   62 1    
   119   60  126 1    
   120   61  127 1    
   121   61  128 1    
   122   61  129 1    
   123   62   63 2    
   124   62   64 am   BACKBONE|DICT|INTERRES
   125   64   65 1    
   126   64  130 1    
   127   65   66 1    
   128   65   69 1    
   129   65  131 1    
   130   66   67 am   BACKBONE|DICT|INTERRES
   131   66   68 2    
   132   67  132 1    
   133   67  133 1    
   134   69   70 1    
   135   69  134 1    
   136   69  135 1    
   137   70   71 1    
   138   71  136 1    
   139   71  137 1    
@<TRIPOS>SUBSTRUCTURE
     1 UNK         1 GROUP             0       ****    0 ROOT    
