@<TRIPOS>MOLECULE
3R136
137   139    1
SMALL
USER_CHARGES


@<TRIPOS>ATOM
      1 CA         30.2074   16.8244   -0.0666 C.3       0 UNK        -0.1979 
      2 C          29.9799   18.2994   -0.3643 C.2       0 UNK         0.4864 
      3 O          30.3787   18.7770   -1.4279 O.2       0 UNK        -0.5359 
      4 N          29.3498   19.0252    0.5687 N.am      1 UNK        -0.4318 
      5 CA         28.9877   20.4377    0.4230 C.3       1 UNK         0.0824 
      6 C6         28.6441   21.0674    1.7972 C.3       12 UNK        -0.0944 
      7 S7         28.6598   22.8939    1.7673 S.3       12 UNK        -0.2672 
      8 C8         29.6286   23.2593    3.2619 C.3       12 UNK         0.0333 
      9 C9         29.6738   24.7545    3.5335 C.ar      12 UNK        -0.0807 
     10 C10        30.8068   25.5029    3.2019 C.ar      12 UNK        -0.0894 
     11 C11        30.8541   26.8755    3.4665 C.ar      12 UNK        -0.0804 
     12 C12        29.7536   27.5008    4.0622 C.ar      12 UNK        -0.0824 
     13 C13        28.6052   26.7652    4.3752 C.ar      12 UNK        -0.0762 
     14 C14        28.5768   25.3912    4.1200 C.ar      12 UNK        -0.0782 
     15 C15        27.3820   27.4492    4.9682 C.3       12 UNK         0.0230 
     16 S16        26.0856   27.7053    3.7112 S.3       12 UNK        -0.2608 
     17 C17        26.7996   29.0560    2.7127 C.3       12 UNK        -0.0989 
     18 CA         27.5432   28.5420    1.4489 C.3       5 UNK         0.0716 
     19 N          26.6943   27.7765    0.5299 N.am      5 UNK        -0.4135 
     20 C          25.6791   28.2386   -0.2150 C.2       4 UNK         0.5031 
     21 O          25.3067   29.4123   -0.2292 O.2       4 UNK        -0.5229 
     22 CA         24.9633   27.2157   -1.1166 C.3       4 UNK         0.0329 
     23 CB         25.4696   27.3338   -2.5640 C.3       4 UNK        -0.2001 
     24 N          25.1393   25.8328   -0.6635 N.am      4 UNK        -0.4303 
     25 C          24.4795   25.2676    0.3577 C.2       3 UNK         0.5044 
     26 O          23.6036   25.8481    1.0002 O.2       3 UNK        -0.5152 
     27 CA         24.8838   23.8323    0.7577 C.3       3 UNK         0.0319 
     28 CB         23.6609   22.9414    1.0616 C.3       3 UNK        -0.2001 
     29 N          25.8074   23.1704   -0.1772 N.am      3 UNK        -0.4354 
     30 C          25.5671   22.7644   -1.4360 C.2       2 UNK         0.4964 
     31 O          24.4873   22.9052   -2.0094 O.2       2 UNK        -0.5047 
     32 CA         26.7407   22.1275   -2.2071 C.3       2 UNK         0.0288 
     33 CB         27.2894   23.1138   -3.2527 C.3       2 UNK        -0.2113 
     34 N          27.8399   21.7000   -1.3360 N.am      2 UNK        -0.4145 
     35 C          27.8168   20.6014   -0.5692 C.2       1 UNK         0.5006 
     36 O          26.9006   19.7743   -0.5820 O.2       1 UNK        -0.5103 
     37 C          28.3407   29.6492    0.7266 C.2       5 UNK         0.5055 
     38 O          28.4056   30.7845    1.2028 O.2       5 UNK        -0.5220 
     39 N          28.9562   29.2952   -0.4106 N.am      6 UNK        -0.4450 
     40 CA         29.9315   30.1390   -1.1024 C.3       6 UNK         0.0367 
     41 CB         30.2218   29.5534   -2.4936 C.3       6 UNK        -0.1929 
     42 C          31.2191   30.2348   -0.2670 C.2       6 UNK         0.5070 
     43 O          31.6991   29.2047    0.2071 O.2       6 UNK        -0.5237 
     44 N          31.7382   31.4587   -0.0986 N.am      7 UNK        -0.4739 
     45 CA         32.8888   31.8127    0.7464 C.3       7 UNK         0.0276 
     46 CB         34.1914   31.1628    0.2302 C.3       7 UNK        -0.1927 
     47 C          32.6432   31.5472    2.2467 C.2       7 UNK         0.5013 
     48 O          33.5583   31.1281    2.9588 O.2       7 UNK        -0.5193 
     49 N          31.4207   31.8379    2.7213 N.am      8 UNK        -0.4253 
     50 CA         30.9962   31.6996    4.1230 C.3       8 UNK         0.0242 
     51 CB         29.5358   32.1530    4.2710 C.3       8 UNK        -0.2000 
     52 C          31.8820   32.4437    5.1386 C.2       8 UNK         0.4948 
     53 O          32.0279   31.9718    6.2650 O.2       8 UNK        -0.5275 
     54 N          32.4935   33.5585    4.7140 N.am      9 UNK        -0.4246 
     55 CA         33.4770   34.3207    5.4868 C.3       9 UNK         0.0261 
     56 CB         33.7899   35.6339    4.7512 C.3       9 UNK        -0.1959 
     57 C          34.7772   33.5458    5.7805 C.2       9 UNK         0.5033 
     58 O          35.4256   33.8398    6.7859 O.2       9 UNK        -0.5390 
     59 N          35.1376   32.5817    4.9195 N.am      10 UNK        -0.4215 
     60 CA         36.2744   31.6839    5.1263 C.3       10 UNK         0.0240 
     61 CB         36.8419   31.2328    3.7695 C.3       10 UNK        -0.1982 
     62 C          35.8754   30.4729    5.9828 C.2       10 UNK         0.4970 
     63 O          36.6529   30.0733    6.8506 O.2       10 UNK        -0.4916 
     64 N          34.6837   29.9136    5.7287 N.am      11 UNK        -0.4279 
     65 CA         34.1311   28.7752    6.4815 C.3       11 UNK         0.1003 
     66 C          33.7305   29.1166    7.9435 C.2       11 UNK         0.5709 
     67 N          33.2172   30.3070    8.2244 N.am      11 UNK        -0.7358 
     68 O          33.8979   28.2897    8.8369 O.2       11 UNK        -0.4999 
     69 C69        32.9597   28.0920    5.7329 C.3       12 UNK        -0.0954 
     70 S70        33.5035   27.3496    4.1600 S.3       12 UNK        -0.2268 
     71 C71        32.0838   27.6823    3.0743 C.3       12 UNK         0.0203 
     72 H72        29.8174   16.5406    0.9108 H         1 UNK         0.0888 
     73 H73        29.7147   16.2098   -0.8195 H         1 UNK         0.0888 
     74 H74        31.2731   16.5977   -0.0849 H         1 UNK         0.0888 
     75 H75        29.0161   18.5705    1.4065 H         1 UNK         0.3017 
     76 H76        29.8620   20.9527    0.0175 H         1 UNK         0.0873 
     77 H77        27.6722   20.7260    2.1600 H         1 UNK         0.0745 
     78 H78        29.3705   20.7323    2.5397 H         1 UNK         0.0745 
     79 H79        30.6372   22.8589    3.1471 H         1 UNK         0.0705 
     80 H80        29.1854   22.7467    4.1172 H         1 UNK         0.0705 
     81 H81        31.6561   25.0192    2.7386 H         1 UNK         0.1334 
     82 H82        29.7788   28.5636    4.2569 H         1 UNK         0.1417 
     83 H83        27.6906   24.8192    4.3605 H         1 UNK         0.1562 
     84 H84        27.6491   28.4025    5.4273 H         1 UNK         0.0748 
     85 H85        26.9760   26.8308    5.7701 H         1 UNK         0.0748 
     86 H86        27.4705   29.6336    3.3498 H         1 UNK         0.0940 
     87 H87        25.9972   29.7395    2.4305 H         1 UNK         0.0940 
     88 H88        28.3015   27.8341    1.7811 H         1 UNK         0.0703 
     89 H89        26.9003   26.7908    0.4725 H         1 UNK         0.3081 
     90 H90        23.8974   27.4542   -1.1057 H         1 UNK         0.0719 
     91 H91        26.5332   27.1055   -2.6432 H         1 UNK         0.0809 
     92 H92        24.9305   26.6584   -3.2289 H         1 UNK         0.0809 
     93 H93        25.3246   28.3454   -2.9463 H         1 UNK         0.0809 
     94 H94        25.8163   25.2708   -1.1571 H         1 UNK         0.2990 
     95 H95        25.4427   23.9391    1.6889 H         1 UNK         0.0690 
     96 H96        23.0011   22.8474    0.1988 H         1 UNK         0.0788 
     97 H97        23.0675   23.3565    1.8772 H         1 UNK         0.0788 
     98 H98        23.9658   21.9392    1.3631 H         1 UNK         0.0788 
     99 H99        26.7376   23.0148    0.1896 H         1 UNK         0.2993 
    100 H100       26.3487   21.2528   -2.7311 H         1 UNK         0.0949 
    101 H101       27.7055   24.0091   -2.7888 H         1 UNK         0.0767 
    102 H102       28.0719   22.6545   -3.8571 H         1 UNK         0.0767 
    103 H103       26.5033   23.4364   -3.9372 H         1 UNK         0.0767 
    104 H104       28.6310   22.3247   -1.2651 H         1 UNK         0.3013 
    105 H105       28.8850   28.3383   -0.7225 H         1 UNK         0.3121 
    106 H106       29.5022   31.1356   -1.2270 H         1 UNK         0.0774 
    107 H107       30.9302   30.1791   -3.0382 H         1 UNK         0.0815 
    108 H108       30.6536   28.5536   -2.4300 H         1 UNK         0.0815 
    109 H109       29.3153   29.4911   -3.0959 H         1 UNK         0.0815 
    110 H110       31.2686   32.2378   -0.5410 H         1 UNK         0.2987 
    111 H111       33.0114   32.8930    0.6549 H         1 UNK         0.0949 
    112 H112       34.1901   30.0813    0.3700 H         1 UNK         0.0806 
    113 H113       34.3450   31.3653   -0.8295 H         1 UNK         0.0806 
    114 H114       35.0593   31.5534    0.7632 H         1 UNK         0.0806 
    115 H115       30.7154   32.1451    2.0658 H         1 UNK         0.3010 
    116 H116       31.0506   30.6396    4.3725 H         1 UNK         0.0829 
    117 H117       29.1969   32.0514    5.3032 H         1 UNK         0.0813 
    118 H118       29.4056   33.1976    3.9860 H         1 UNK         0.0813 
    119 H119       28.8676   31.5530    3.6564 H         1 UNK         0.0813 
    120 H120       32.3026   33.8791    3.7760 H         1 UNK         0.3038 
    121 H121       33.0222   34.5671    6.4487 H         1 UNK         0.0769 
    122 H122       34.4992   36.2387    5.3182 H         1 UNK         0.0811 
    123 H123       32.8920   36.2368    4.6137 H         1 UNK         0.0811 
    124 H124       34.2289   35.4530    3.7692 H         1 UNK         0.0811 
    125 H125       34.5269   32.3563    4.1399 H         1 UNK         0.3204 
    126 H126       37.0659   32.2221    5.6527 H         1 UNK         0.0748 
    127 H127       37.7327   30.6186    3.9080 H         1 UNK         0.0771 
    128 H128       36.1257   30.6383    3.2015 H         1 UNK         0.0771 
    129 H129       37.1294   32.0868    3.1560 H         1 UNK         0.0771 
    130 H130       34.1192   30.2752    4.9716 H         1 UNK         0.2980 
    131 H131       34.9302   28.0350    6.5605 H         1 UNK         0.0545 
    132 H132       32.9749   30.9581    7.4810 H         1 UNK         0.3459 
    133 H133       32.9682   30.5223    9.1759 H         1 UNK         0.3459 
    134 H134       32.5251   27.2915    6.3347 H         1 UNK         0.0616 
    135 H135       32.1586   28.8095    5.5503 H         1 UNK         0.0616 
    136 H136       32.3669   27.4230    2.0537 H         1 UNK         0.0634 
    137 H137       31.8686   28.7507    3.0676 H         1 UNK         0.0634 
@<TRIPOS>BOND
     1    1    2 1    
     2    1   72 1    
     3    1   73 1    
     4    1   74 1    
     5    2    3 2    
     6    2    4 am   BACKBONE|DICT|INTERRES
     7    4    5 1    
     8    4   75 1    
     9    5    6 1    
    10    5   35 1    
    11    5   76 1    
    12    6    7 1    
    13    6   77 1    
    14    6   78 1    
    15    7    8 1    
    16    8    9 1    
    17    8   79 1    
    18    8   80 1    
    19    9   10 ar   
    20    9   14 ar   
    21   10   11 ar   
    22   10   81 1    
    23   11   12 ar   
    24   11   71 1    
    25   12   13 ar   
    26   12   82 1    
    27   13   14 ar   
    28   13   15 1    
    29   14   83 1    
    30   15   16 1    
    31   15   84 1    
    32   15   85 1    
    33   16   17 1    
    34   17   18 1    
    35   17   86 1    
    36   17   87 1    
    37   18   19 1    
    38   18   37 1    
    39   18   88 1    
    40   19   20 am   BACKBONE|DICT|INTERRES
    41   19   89 1    
    42   20   21 2    
    43   20   22 1    
    44   22   23 1    
    45   22   24 1    
    46   22   90 1    
    47   23   91 1    
    48   23   92 1    
    49   23   93 1    
    50   24   25 am   BACKBONE|DICT|INTERRES
    51   24   94 1    
    52   25   26 2    
    53   25   27 1    
    54   27   28 1    
    55   27   29 1    
    56   27   95 1    
    57   28   96 1    
    58   28   97 1    
    59   28   98 1    
    60   29   30 am   BACKBONE|DICT|INTERRES
    61   29   99 1    
    62   30   31 2    
    63   30   32 1    
    64   32   33 1    
    65   32   34 1    
    66   32  100 1    
    67   33  101 1    
    68   33  102 1    
    69   33  103 1    
    70   34   35 am   BACKBONE|DICT|INTERRES
    71   34  104 1    
    72   35   36 2    
    73   37   38 2    
    74   37   39 am   BACKBONE|DICT|INTERRES
    75   39   40 1    
    76   39  105 1    
    77   40   41 1    
    78   40   42 1    
    79   40  106 1    
    80   41  107 1    
    81   41  108 1    
    82   41  109 1    
    83   42   43 2    
    84   42   44 am   BACKBONE|DICT|INTERRES
    85   44   45 1    
    86   44  110 1    
    87   45   46 1    
    88   45   47 1    
    89   45  111 1    
    90   46  112 1    
    91   46  113 1    
    92   46  114 1    
    93   47   48 2    
    94   47   49 am   BACKBONE|DICT|INTERRES
    95   49   50 1    
    96   49  115 1    
    97   50   51 1    
    98   50   52 1    
    99   50  116 1    
   100   51  117 1    
   101   51  118 1    
   102   51  119 1    
   103   52   53 2    
   104   52   54 am   BACKBONE|DICT|INTERRES
   105   54   55 1    
   106   54  120 1    
   107   55   56 1    
   108   55   57 1    
   109   55  121 1    
   110   56  122 1    
   111   56  123 1    
   112   56  124 1    
   113   57   58 2    
   114   57   59 am   BACKBONE|DICT|INTERRES
   115   59   60 1    
   116   59  125 1    
   117   60   61 1    
   118   60   62 1    
   119   60  126 1    
   120   61  127 1    
   121   61  128 1    
   122   61  129 1    
   123   62   63 2    
   124   62   64 am   BACKBONE|DICT|INTERRES
   125   64   65 1    
   126   64  130 1    
   127   65   66 1    
   128   65   69 1    
   129   65  131 1    
   130   66   67 am   BACKBONE|DICT|INTERRES
   131   66   68 2    
   132   67  132 1    
   133   67  133 1    
   134   69   70 1    
   135   69  134 1    
   136   69  135 1    
   137   70   71 1    
   138   71  136 1    
   139   71  137 1    
@<TRIPOS>SUBSTRUCTURE
     1 UNK         1 GROUP             0       ****    0 ROOT    
