@<TRIPOS>MOLECULE
3R136
137   139    1
SMALL
USER_CHARGES


@<TRIPOS>ATOM
      1 CA         34.5424   25.4520   -1.5544 C.3       0 UNK        -0.1979 
      2 C          33.4047   24.8675   -0.7308 C.2       0 UNK         0.4864 
      3 O          33.5703   24.6452    0.4677 O.2       0 UNK        -0.5359 
      4 N          32.2517   24.6259   -1.3626 N.am      1 UNK        -0.4318 
      5 CA         31.0276   24.1316   -0.7389 C.3       1 UNK         0.0824 
      6 C6         31.0585   22.5923   -0.5467 C.3       12 UNK        -0.0944 
      7 S7         29.6132   21.9051    0.3390 S.3       12 UNK        -0.2672 
      8 C8         30.2585   21.6456    2.0216 C.3       12 UNK         0.0333 
      9 C9         30.0547   22.8711    2.9003 C.ar      12 UNK        -0.0807 
     10 C10        30.9947   23.9040    2.9010 C.ar      12 UNK        -0.0894 
     11 C11        30.8202   25.0253    3.7167 C.ar      12 UNK        -0.0804 
     12 C12        29.7094   25.0957    4.5623 C.ar      12 UNK        -0.0824 
     13 C13        28.7593   24.0680    4.5715 C.ar      12 UNK        -0.0762 
     14 C14        28.9339   22.9632    3.7317 C.ar      12 UNK        -0.0782 
     15 C15        27.5558   24.1318    5.5032 C.3       12 UNK         0.0230 
     16 S16        26.1117   24.9167    4.7155 S.3       12 UNK        -0.2608 
     17 C17        26.6050   26.6727    4.7255 C.3       12 UNK        -0.0989 
     18 CA         26.9806   27.1767    3.3033 C.3       5 UNK         0.0716 
     19 N          25.8365   27.1998    2.3779 N.am      5 UNK        -0.4135 
     20 C          24.7386   27.9702    2.4721 C.2       4 UNK         0.5031 
     21 O          24.5467   28.7750    3.3841 O.2       4 UNK        -0.5229 
     22 CA         23.6903   27.8800    1.3448 C.3       4 UNK         0.0329 
     23 CB         23.7102   29.1635    0.4962 C.3       4 UNK        -0.2001 
     24 N          23.8770   26.7303    0.4587 N.am      4 UNK        -0.4303 
     25 C          23.5332   25.4691    0.7529 C.2       3 UNK         0.5044 
     26 O          22.9324   25.1427    1.7767 O.2       3 UNK        -0.5152 
     27 CA         23.9511   24.3835   -0.2588 C.3       3 UNK         0.0319 
     28 CB         22.7805   24.0445   -1.1959 C.3       3 UNK        -0.2001 
     29 N          25.1332   24.7248   -1.0646 N.am      3 UNK        -0.4354 
     30 C          26.3529   24.9694   -0.5668 C.2       2 UNK         0.4964 
     31 O          26.6107   24.9965    0.6392 O.2       2 UNK        -0.5047 
     32 CA         27.4604   25.2988   -1.5695 C.3       2 UNK         0.0288 
     33 CB         27.4807   26.8060   -1.8880 C.3       2 UNK        -0.2113 
     34 N          28.7217   24.8958   -0.9620 N.am      2 UNK        -0.4145 
     35 C          29.8549   24.6126   -1.6084 C.2       1 UNK         0.5006 
     36 O          30.0015   24.7195   -2.8299 O.2       1 UNK        -0.5103 
     37 C          27.7734   28.5067    3.3329 C.2       5 UNK         0.5055 
     38 O          28.5016   28.7554    4.2933 O.2       5 UNK        -0.5220 
     39 N          27.6374   29.3322    2.2842 N.am      6 UNK        -0.4450 
     40 CA         28.2704   30.6495    2.1628 C.3       6 UNK         0.0367 
     41 CB         27.3303   31.5736    1.3713 C.3       6 UNK        -0.1929 
     42 C          29.6555   30.6030    1.4934 C.2       6 UNK         0.5070 
     43 O          30.3873   31.5924    1.5636 O.2       6 UNK        -0.5237 
     44 N          29.9933   29.4772    0.8492 N.am      7 UNK        -0.4739 
     45 CA         31.2496   29.2574    0.1256 C.3       7 UNK         0.0276 
     46 CB         31.2060   27.8691   -0.5274 C.3       7 UNK        -0.1927 
     47 C          32.4911   29.3832    1.0253 C.2       7 UNK         0.5013 
     48 O          32.4158   29.0620    2.2120 O.2       7 UNK        -0.5193 
     49 N          33.6060   29.8486    0.4420 N.am      8 UNK        -0.4253 
     50 CA         34.9011   30.0857    1.0994 C.3       8 UNK         0.0242 
     51 CB         35.5705   28.7437    1.4696 C.3       8 UNK        -0.2000 
     52 C          34.8008   31.0588    2.2944 C.2       8 UNK         0.4948 
     53 O          35.3984   30.8095    3.3434 O.2       8 UNK        -0.5275 
     54 N          34.0113   32.1315    2.1147 N.am      9 UNK        -0.4246 
     55 CA         33.6410   33.1392    3.1196 C.3       9 UNK         0.0261 
     56 CB         34.8620   33.9998    3.5101 C.3       9 UNK        -0.1959 
     57 C          32.9307   32.5086    4.3347 C.2       9 UNK         0.5033 
     58 O          33.2955   32.7860    5.4789 O.2       9 UNK        -0.5390 
     59 N          31.9462   31.6465    4.0420 N.am      10 UNK        -0.4215 
     60 CA         31.2176   30.7719    4.9659 C.3       10 UNK         0.0240 
     61 CB         30.2950   31.5902    5.8933 C.3       10 UNK        -0.1982 
     62 C          32.1474   29.8001    5.7182 C.2       10 UNK         0.4970 
     63 O          32.0450   29.6697    6.9398 O.2       10 UNK        -0.4916 
     64 N          33.0391   29.1453    4.9611 N.am      11 UNK        -0.4279 
     65 CA         34.0901   28.2310    5.4314 C.3       11 UNK         0.1003 
     66 C          35.0413   28.8924    6.4716 C.2       11 UNK         0.5709 
     67 N          35.6613   30.0101    6.1153 N.am      11 UNK        -0.7358 
     68 O          35.2284   28.4078    7.5859 O.2       11 UNK        -0.4999 
     69 C69        33.5174   26.8410    5.8457 C.3       12 UNK        -0.0954 
     70 S70        33.4107   25.7110    4.4186 S.3       12 UNK        -0.2268 
     71 C71        31.8224   26.1666    3.6575 C.3       12 UNK         0.0203 
     72 H72        35.4179   24.8059   -1.4964 H         1 UNK         0.0888 
     73 H73        34.2712   25.5623   -2.6042 H         1 UNK         0.0888 
     74 H74        34.8164   26.4337   -1.1694 H         1 UNK         0.0888 
     75 H75        32.1418   24.8440   -2.3460 H         1 UNK         0.3017 
     76 H76        30.9291   24.6124    0.2350 H         1 UNK         0.0873 
     77 H77        31.9659   22.3056   -0.0139 H         1 UNK         0.0745 
     78 H78        31.1235   22.0961   -1.5169 H         1 UNK         0.0745 
     79 H79        29.7417   20.7899    2.4588 H         1 UNK         0.0705 
     80 H80        31.3135   21.3698    1.9905 H         1 UNK         0.0705 
     81 H81        31.8667   23.8380    2.2651 H         1 UNK         0.1334 
     82 H82        29.5832   25.9555    5.2054 H         1 UNK         0.1417 
     83 H83        28.2006   22.1680    3.7342 H         1 UNK         0.1562 
     84 H84        27.8110   24.6601    6.4231 H         1 UNK         0.0748 
     85 H85        27.2763   23.1224    5.8089 H         1 UNK         0.0748 
     86 H86        27.4295   26.7944    5.4283 H         1 UNK         0.0940 
     87 H87        25.7883   27.2619    5.1440 H         1 UNK         0.0940 
     88 H88        27.6805   26.4562    2.8769 H         1 UNK         0.0703 
     89 H89        25.8942   26.5165    1.6287 H         1 UNK         0.3081 
     90 H90        22.7098   27.7995    1.8193 H         1 UNK         0.0719 
     91 H91        24.6652   29.3003   -0.0127 H         1 UNK         0.0809 
     92 H92        22.9253   29.1506   -0.2602 H         1 UNK         0.0809 
     93 H93        23.5428   30.0458    1.1159 H         1 UNK         0.0809 
     94 H94        24.3446   26.9013   -0.4193 H         1 UNK         0.2990 
     95 H95        24.1970   23.4886    0.3170 H         1 UNK         0.0690 
     96 H96        23.0240   23.2068   -1.8497 H         1 UNK         0.0788 
     97 H97        22.5059   24.8935   -1.8232 H         1 UNK         0.0788 
     98 H98        21.8942   23.7601   -0.6265 H         1 UNK         0.0788 
     99 H99        25.0033   24.7434   -2.0666 H         1 UNK         0.2993 
    100 H100       27.2983   24.7225   -2.4832 H         1 UNK         0.0949 
    101 H101       28.2644   27.0488   -2.6058 H         1 UNK         0.0767 
    102 H102       26.5351   27.1286   -2.3254 H         1 UNK         0.0767 
    103 H103       27.6507   27.4056   -0.9929 H         1 UNK         0.0767 
    104 H104       28.6511   24.7218    0.0345 H         1 UNK         0.3013 
    105 H105       27.0156   29.0570    1.5390 H         1 UNK         0.3121 
    106 H106       28.4053   31.0784    3.1583 H         1 UNK         0.0774 
    107 H107       27.7457   32.5795    1.2942 H         1 UNK         0.0815 
    108 H108       27.1648   31.2113    0.3559 H         1 UNK         0.0815 
    109 H109       26.3593   31.6631    1.8591 H         1 UNK         0.0815 
    110 H110       29.3492   28.7029    0.8829 H         1 UNK         0.2987 
    111 H111       31.3112   30.0149   -0.6588 H         1 UNK         0.0949 
    112 H112       32.1072   27.6843   -1.1131 H         1 UNK         0.0806 
    113 H113       31.1345   27.0802    0.2220 H         1 UNK         0.0806 
    114 H114       30.3580   27.7721   -1.2051 H         1 UNK         0.0806 
    115 H115       33.5682   30.0870   -0.5399 H         1 UNK         0.3010 
    116 H116       35.5398   30.5790    0.3651 H         1 UNK         0.0829 
    117 H117       35.6996   28.1115    0.5916 H         1 UNK         0.0813 
    118 H118       36.5599   28.9019    1.9005 H         1 UNK         0.0813 
    119 H119       34.9835   28.1834    2.1973 H         1 UNK         0.0813 
    120 H120       33.5539   32.2264    1.2183 H         1 UNK         0.3038 
    121 H121       32.9107   33.7974    2.6461 H         1 UNK         0.0769 
    122 H122       34.5683   34.8140    4.1736 H         1 UNK         0.0811 
    123 H123       35.3282   34.4488    2.6332 H         1 UNK         0.0811 
    124 H124       35.6208   33.4153    4.0314 H         1 UNK         0.0811 
    125 H125       31.7034   31.5228    3.0627 H         1 UNK         0.3204 
    126 H126       30.5879   30.1462    4.3370 H         1 UNK         0.0748 
    127 H127       29.6648   30.9308    6.4915 H         1 UNK         0.0771 
    128 H128       30.8633   32.2148    6.5831 H         1 UNK         0.0771 
    129 H129       29.6318   32.2377    5.3200 H         1 UNK         0.0771 
    130 H130       32.9960   29.2761    3.9527 H         1 UNK         0.2980 
    131 H131       34.7389   28.0720    4.5697 H         1 UNK         0.0545 
    132 H132       36.2792   30.4676    6.7652 H         1 UNK         0.3459 
    133 H133       35.5255   30.3925    5.1816 H         1 UNK         0.3459 
    134 H134       34.1668   26.3408    6.5654 H         1 UNK         0.0616 
    135 H135       32.5453   26.9275    6.3335 H         1 UNK         0.0616 
    136 H136       32.0045   26.4227    2.6130 H         1 UNK         0.0634 
    137 H137       31.4134   27.0643    4.1222 H         1 UNK         0.0634 
@<TRIPOS>BOND
     1    1    2 1    
     2    1   72 1    
     3    1   73 1    
     4    1   74 1    
     5    2    3 2    
     6    2    4 am   BACKBONE|DICT|INTERRES
     7    4    5 1    
     8    4   75 1    
     9    5    6 1    
    10    5   35 1    
    11    5   76 1    
    12    6    7 1    
    13    6   77 1    
    14    6   78 1    
    15    7    8 1    
    16    8    9 1    
    17    8   79 1    
    18    8   80 1    
    19    9   10 ar   
    20    9   14 ar   
    21   10   11 ar   
    22   10   81 1    
    23   11   12 ar   
    24   11   71 1    
    25   12   13 ar   
    26   12   82 1    
    27   13   14 ar   
    28   13   15 1    
    29   14   83 1    
    30   15   16 1    
    31   15   84 1    
    32   15   85 1    
    33   16   17 1    
    34   17   18 1    
    35   17   86 1    
    36   17   87 1    
    37   18   19 1    
    38   18   37 1    
    39   18   88 1    
    40   19   20 am   BACKBONE|DICT|INTERRES
    41   19   89 1    
    42   20   21 2    
    43   20   22 1    
    44   22   23 1    
    45   22   24 1    
    46   22   90 1    
    47   23   91 1    
    48   23   92 1    
    49   23   93 1    
    50   24   25 am   BACKBONE|DICT|INTERRES
    51   24   94 1    
    52   25   26 2    
    53   25   27 1    
    54   27   28 1    
    55   27   29 1    
    56   27   95 1    
    57   28   96 1    
    58   28   97 1    
    59   28   98 1    
    60   29   30 am   BACKBONE|DICT|INTERRES
    61   29   99 1    
    62   30   31 2    
    63   30   32 1    
    64   32   33 1    
    65   32   34 1    
    66   32  100 1    
    67   33  101 1    
    68   33  102 1    
    69   33  103 1    
    70   34   35 am   BACKBONE|DICT|INTERRES
    71   34  104 1    
    72   35   36 2    
    73   37   38 2    
    74   37   39 am   BACKBONE|DICT|INTERRES
    75   39   40 1    
    76   39  105 1    
    77   40   41 1    
    78   40   42 1    
    79   40  106 1    
    80   41  107 1    
    81   41  108 1    
    82   41  109 1    
    83   42   43 2    
    84   42   44 am   BACKBONE|DICT|INTERRES
    85   44   45 1    
    86   44  110 1    
    87   45   46 1    
    88   45   47 1    
    89   45  111 1    
    90   46  112 1    
    91   46  113 1    
    92   46  114 1    
    93   47   48 2    
    94   47   49 am   BACKBONE|DICT|INTERRES
    95   49   50 1    
    96   49  115 1    
    97   50   51 1    
    98   50   52 1    
    99   50  116 1    
   100   51  117 1    
   101   51  118 1    
   102   51  119 1    
   103   52   53 2    
   104   52   54 am   BACKBONE|DICT|INTERRES
   105   54   55 1    
   106   54  120 1    
   107   55   56 1    
   108   55   57 1    
   109   55  121 1    
   110   56  122 1    
   111   56  123 1    
   112   56  124 1    
   113   57   58 2    
   114   57   59 am   BACKBONE|DICT|INTERRES
   115   59   60 1    
   116   59  125 1    
   117   60   61 1    
   118   60   62 1    
   119   60  126 1    
   120   61  127 1    
   121   61  128 1    
   122   61  129 1    
   123   62   63 2    
   124   62   64 am   BACKBONE|DICT|INTERRES
   125   64   65 1    
   126   64  130 1    
   127   65   66 1    
   128   65   69 1    
   129   65  131 1    
   130   66   67 am   BACKBONE|DICT|INTERRES
   131   66   68 2    
   132   67  132 1    
   133   67  133 1    
   134   69   70 1    
   135   69  134 1    
   136   69  135 1    
   137   70   71 1    
   138   71  136 1    
   139   71  137 1    
@<TRIPOS>SUBSTRUCTURE
     1 UNK         1 GROUP             0       ****    0 ROOT    
