@<TRIPOS>MOLECULE
3R136
137   139    1
SMALL
USER_CHARGES


@<TRIPOS>ATOM
      1 CA         34.2630   22.5915    1.2054 C.3       0 UNK        -0.1979 
      2 C          32.7963   22.9388    1.0044 C.2       0 UNK         0.4864 
      3 O          32.4550   24.1158    0.8981 O.2       0 UNK        -0.5359 
      4 N          31.9216   21.9260    0.9297 N.am      1 UNK        -0.4318 
      5 CA         30.4561   22.0670    0.8611 C.3       1 UNK         0.0824 
      6 C6         29.7134   20.7477    1.2128 C.3       12 UNK        -0.0944 
      7 S7         30.3622   19.9016    2.7008 S.3       12 UNK        -0.2672 
      8 C8         29.3795   20.6369    4.0539 C.3       12 UNK         0.0333 
      9 C9         29.5840   22.1423    4.1813 C.ar      12 UNK        -0.0807 
     10 C10        30.8724   22.6797    4.2793 C.ar      12 UNK        -0.0894 
     11 C11        31.0667   24.0639    4.2947 C.ar      12 UNK        -0.0804 
     12 C12        29.9583   24.9142    4.2659 C.ar      12 UNK        -0.0824 
     13 C13        28.6639   24.3884    4.2241 C.ar      12 UNK        -0.0762 
     14 C14        28.4822   23.0032    4.1719 C.ar      12 UNK        -0.0782 
     15 C15        27.4622   25.3169    4.2284 C.3       12 UNK         0.0230 
     16 S16        26.8653   25.6150    2.5397 S.3       12 UNK        -0.2608 
     17 C17        25.6393   26.9277    2.8501 C.3       12 UNK        -0.0989 
     18 CA         26.2549   28.3370    2.6839 C.3       5 UNK         0.0716 
     19 N          26.7927   28.5468    1.3355 N.am      5 UNK        -0.4135 
     20 C          27.3416   29.6768    0.8769 C.2       4 UNK         0.5031 
     21 O          27.4589   30.7001    1.5525 O.2       4 UNK        -0.5229 
     22 CA         27.8872   29.6419   -0.5598 C.3       4 UNK         0.0329 
     23 CB         28.0587   31.0514   -1.1542 C.3       4 UNK        -0.2001 
     24 N          29.1752   28.9506   -0.6061 N.am      4 UNK        -0.4303 
     25 C          29.3273   27.6209   -0.5889 C.2       3 UNK         0.5044 
     26 O          28.3834   26.8306   -0.5093 O.2       3 UNK        -0.5152 
     27 CA         30.7790   27.1053   -0.6471 C.3       3 UNK         0.0319 
     28 CB         31.4353   27.2081    0.7397 C.3       3 UNK        -0.2001 
     29 N          30.8839   25.7208   -1.1201 N.am      3 UNK        -0.4354 
     30 C          30.4895   25.2770   -2.3263 C.2       2 UNK         0.4964 
     31 O          30.0791   26.0180   -3.2214 O.2       2 UNK        -0.5047 
     32 CA         30.5789   23.7616   -2.6102 C.3       2 UNK         0.0288 
     33 CB         31.6832   23.4671   -3.6401 C.3       2 UNK        -0.2113 
     34 N          30.8308   22.9616   -1.4112 N.am      2 UNK        -0.4145 
     35 C          29.9303   22.6831   -0.4577 C.2       1 UNK         0.5006 
     36 O          28.7270   22.9165   -0.5780 O.2       1 UNK        -0.5103 
     37 C          25.2429   29.4295    3.0900 C.2       5 UNK         0.5055 
     38 O          24.3072   29.7050    2.3360 O.2       5 UNK        -0.5220 
     39 N          25.4789   30.0289    4.2663 N.am      6 UNK        -0.4450 
     40 CA         24.7487   31.1491    4.8761 C.3       6 UNK         0.0367 
     41 CB         23.2517   30.8199    5.0652 C.3       6 UNK        -0.1929 
     42 C          24.9666   32.5188    4.1957 C.2       6 UNK         0.5070 
     43 O          24.3043   33.4807    4.5885 O.2       6 UNK        -0.5237 
     44 N          25.8951   32.6141    3.2333 N.am      7 UNK        -0.4739 
     45 CA         26.2900   33.8644    2.5755 C.3       7 UNK         0.0276 
     46 CB         25.8220   33.8513    1.1105 C.3       7 UNK        -0.1927 
     47 C          27.8070   34.0818    2.6706 C.2       7 UNK         0.5013 
     48 O          28.2398   35.1619    3.0744 O.2       7 UNK        -0.5193 
     49 N          28.5846   33.0521    2.3204 N.am      8 UNK        -0.4253 
     50 CA         30.0420   33.0196    2.3550 C.3       8 UNK         0.0242 
     51 CB         30.6298   33.7369    1.1227 C.3       8 UNK        -0.2000 
     52 C          30.4725   31.5514    2.4557 C.2       8 UNK         0.4948 
     53 O          30.9463   30.9692    1.4759 O.2       8 UNK        -0.5275 
     54 N          30.2680   30.9598    3.6406 N.am      9 UNK        -0.4246 
     55 CA         30.6285   29.5787    3.9782 C.3       9 UNK         0.0261 
     56 CB         29.8384   29.1440    5.2268 C.3       9 UNK        -0.1959 
     57 C          32.1524   29.4180    4.1581 C.2       9 UNK         0.5033 
     58 O          32.6276   29.1457    5.2626 O.2       9 UNK        -0.5390 
     59 N          32.8968   29.6330    3.0683 N.am      10 UNK        -0.4215 
     60 CA         34.3553   29.5820    2.9855 C.3       10 UNK         0.0240 
     61 CB         34.7979   30.3373    1.7181 C.3       10 UNK        -0.1982 
     62 C          34.8926   28.1387    3.0309 C.2       10 UNK         0.4970 
     63 O          35.3916   27.6344    2.0235 O.2       10 UNK        -0.4916 
     64 N          34.7785   27.5011    4.2015 N.am      11 UNK        -0.4279 
     65 CA         35.2985   26.1526    4.4808 C.3       11 UNK         0.1003 
     66 C          36.8516   26.0428    4.5160 C.2       11 UNK         0.5709 
     67 N          37.5973   27.1372    4.6166 N.am      11 UNK        -0.7358 
     68 O          37.3889   24.9401    4.4454 O.2       11 UNK        -0.4999 
     69 C69        34.6867   25.5504    5.7759 C.3       12 UNK        -0.0954 
     70 S70        32.8628   25.5098    5.8341 S.3       12 UNK        -0.2268 
     71 C71        32.4745   24.6367    4.2891 C.3       12 UNK         0.0203 
     72 H72        34.6468   23.0893    2.0954 H         1 UNK         0.0888 
     73 H73        34.4153   21.5189    1.3241 H         1 UNK         0.0888 
     74 H74        34.8480   22.9271    0.3496 H         1 UNK         0.0888 
     75 H75        32.2534   20.9758    1.0194 H         1 UNK         0.3017 
     76 H76        30.1847   22.8040    1.6173 H         1 UNK         0.0873 
     77 H77        28.6472   20.9359    1.3539 H         1 UNK         0.0745 
     78 H78        29.7877   20.0438    0.3818 H         1 UNK         0.0745 
     79 H79        28.3273   20.3965    3.8937 H         1 UNK         0.0705 
     80 H80        29.6651   20.1631    4.9938 H         1 UNK         0.0705 
     81 H81        31.7266   22.0165    4.2866 H         1 UNK         0.1334 
     82 H82        30.1074   25.9849    4.2761 H         1 UNK         0.1417 
     83 H83        27.4805   22.5999    4.1080 H         1 UNK         0.1562 
     84 H84        27.7243   26.2670    4.6968 H         1 UNK         0.0748 
     85 H85        26.6590   24.8865    4.8285 H         1 UNK         0.0748 
     86 H86        25.2211   26.7970    3.8505 H         1 UNK         0.0940 
     87 H87        24.8072   26.7909    2.1563 H         1 UNK         0.0940 
     88 H88        27.1116   28.4081    3.3567 H         1 UNK         0.0703 
     89 H89        26.8279   27.7290    0.7383 H         1 UNK         0.3081 
     90 H90        27.1680   29.1043   -1.1817 H         1 UNK         0.0719 
     91 H91        28.7676   31.6490   -0.5812 H         1 UNK         0.0809 
     92 H92        28.4141   31.0071   -2.1837 H         1 UNK         0.0809 
     93 H93        27.1093   31.5871   -1.1646 H         1 UNK         0.0809 
     94 H94        29.9972   29.5389   -0.5838 H         1 UNK         0.2990 
     95 H95        31.3352   27.7337   -1.3455 H         1 UNK         0.0690 
     96 H96        31.4118   28.2339    1.1040 H         1 UNK         0.0788 
     97 H97        30.9247   26.5835    1.4746 H         1 UNK         0.0788 
     98 H98        32.4817   26.9023    0.7105 H         1 UNK         0.0788 
     99 H99        31.2483   25.0527   -0.4484 H         1 UNK         0.2993 
    100 H100       29.6203   23.4561   -3.0353 H         1 UNK         0.0949 
    101 H101       31.7168   22.4073   -3.8940 H         1 UNK         0.0767 
    102 H102       31.5093   24.0147   -4.5675 H         1 UNK         0.0767 
    103 H103       32.6676   23.7568   -3.2702 H         1 UNK         0.0767 
    104 H104       31.7952   22.7353   -1.2158 H         1 UNK         0.3013 
    105 H105       26.2821   29.7195    4.7959 H         1 UNK         0.3121 
    106 H106       25.1761   31.2579    5.8741 H         1 UNK         0.0774 
    107 H107       22.7625   31.5708    5.6868 H         1 UNK         0.0815 
    108 H108       22.7168   30.7936    4.1157 H         1 UNK         0.0815 
    109 H109       23.1142   29.8570    5.5569 H         1 UNK         0.0815 
    110 H110       26.3846   31.7769    2.9361 H         1 UNK         0.2987 
    111 H111       25.8211   34.7195    3.0675 H         1 UNK         0.0949 
    112 H112       26.2295   33.0024    0.5625 H         1 UNK         0.0806 
    113 H113       24.7352   33.7972    1.0462 H         1 UNK         0.0806 
    114 H114       26.1339   34.7584    0.5911 H         1 UNK         0.0806 
    115 H115       28.1450   32.1846    2.0033 H         1 UNK         0.3010 
    116 H116       30.3941   33.5311    3.2534 H         1 UNK         0.0829 
    117 H117       30.3622   34.7935    1.1124 H         1 UNK         0.0813 
    118 H118       31.7189   33.6790    1.1223 H         1 UNK         0.0813 
    119 H119       30.2796   33.2953    0.1900 H         1 UNK         0.0813 
    120 H120       29.8812   31.5154    4.3902 H         1 UNK         0.3038 
    121 H121       30.3231   28.9295    3.1550 H         1 UNK         0.0769 
    122 H122       30.0701   29.7701    6.0894 H         1 UNK         0.0811 
    123 H123       30.0759   28.1155    5.5016 H         1 UNK         0.0811 
    124 H124       28.7640   29.1936    5.0554 H         1 UNK         0.0811 
    125 H125       32.4020   29.9241    2.2292 H         1 UNK         0.3204 
    126 H126       34.7679   30.1108    3.8474 H         1 UNK         0.0748 
    127 H127       34.3923   29.8818    0.8135 H         1 UNK         0.0771 
    128 H128       34.4720   31.3775    1.7425 H         1 UNK         0.0771 
    129 H129       35.8847   30.3414    1.6239 H         1 UNK         0.0771 
    130 H130       34.2730   27.9612    4.9514 H         1 UNK         0.2980 
    131 H131       34.9947   25.5215    3.6445 H         1 UNK         0.0545 
    132 H132       38.6012   27.0498    4.6344 H         1 UNK         0.3459 
    133 H133       37.1682   28.0457    4.6825 H         1 UNK         0.3459 
    134 H134       35.0370   24.5265    5.9205 H         1 UNK         0.0616 
    135 H135       35.0294   26.1116    6.6471 H         1 UNK         0.0616 
    136 H136       32.5780   25.3262    3.4497 H         1 UNK         0.0634 
    137 H137       33.2050   23.8416    4.1332 H         1 UNK         0.0634 
@<TRIPOS>BOND
     1    1    2 1    
     2    1   72 1    
     3    1   73 1    
     4    1   74 1    
     5    2    3 2    
     6    2    4 am   BACKBONE|DICT|INTERRES
     7    4    5 1    
     8    4   75 1    
     9    5    6 1    
    10    5   35 1    
    11    5   76 1    
    12    6    7 1    
    13    6   77 1    
    14    6   78 1    
    15    7    8 1    
    16    8    9 1    
    17    8   79 1    
    18    8   80 1    
    19    9   10 ar   
    20    9   14 ar   
    21   10   11 ar   
    22   10   81 1    
    23   11   12 ar   
    24   11   71 1    
    25   12   13 ar   
    26   12   82 1    
    27   13   14 ar   
    28   13   15 1    
    29   14   83 1    
    30   15   16 1    
    31   15   84 1    
    32   15   85 1    
    33   16   17 1    
    34   17   18 1    
    35   17   86 1    
    36   17   87 1    
    37   18   19 1    
    38   18   37 1    
    39   18   88 1    
    40   19   20 am   BACKBONE|DICT|INTERRES
    41   19   89 1    
    42   20   21 2    
    43   20   22 1    
    44   22   23 1    
    45   22   24 1    
    46   22   90 1    
    47   23   91 1    
    48   23   92 1    
    49   23   93 1    
    50   24   25 am   BACKBONE|DICT|INTERRES
    51   24   94 1    
    52   25   26 2    
    53   25   27 1    
    54   27   28 1    
    55   27   29 1    
    56   27   95 1    
    57   28   96 1    
    58   28   97 1    
    59   28   98 1    
    60   29   30 am   BACKBONE|DICT|INTERRES
    61   29   99 1    
    62   30   31 2    
    63   30   32 1    
    64   32   33 1    
    65   32   34 1    
    66   32  100 1    
    67   33  101 1    
    68   33  102 1    
    69   33  103 1    
    70   34   35 am   BACKBONE|DICT|INTERRES
    71   34  104 1    
    72   35   36 2    
    73   37   38 2    
    74   37   39 am   BACKBONE|DICT|INTERRES
    75   39   40 1    
    76   39  105 1    
    77   40   41 1    
    78   40   42 1    
    79   40  106 1    
    80   41  107 1    
    81   41  108 1    
    82   41  109 1    
    83   42   43 2    
    84   42   44 am   BACKBONE|DICT|INTERRES
    85   44   45 1    
    86   44  110 1    
    87   45   46 1    
    88   45   47 1    
    89   45  111 1    
    90   46  112 1    
    91   46  113 1    
    92   46  114 1    
    93   47   48 2    
    94   47   49 am   BACKBONE|DICT|INTERRES
    95   49   50 1    
    96   49  115 1    
    97   50   51 1    
    98   50   52 1    
    99   50  116 1    
   100   51  117 1    
   101   51  118 1    
   102   51  119 1    
   103   52   53 2    
   104   52   54 am   BACKBONE|DICT|INTERRES
   105   54   55 1    
   106   54  120 1    
   107   55   56 1    
   108   55   57 1    
   109   55  121 1    
   110   56  122 1    
   111   56  123 1    
   112   56  124 1    
   113   57   58 2    
   114   57   59 am   BACKBONE|DICT|INTERRES
   115   59   60 1    
   116   59  125 1    
   117   60   61 1    
   118   60   62 1    
   119   60  126 1    
   120   61  127 1    
   121   61  128 1    
   122   61  129 1    
   123   62   63 2    
   124   62   64 am   BACKBONE|DICT|INTERRES
   125   64   65 1    
   126   64  130 1    
   127   65   66 1    
   128   65   69 1    
   129   65  131 1    
   130   66   67 am   BACKBONE|DICT|INTERRES
   131   66   68 2    
   132   67  132 1    
   133   67  133 1    
   134   69   70 1    
   135   69  134 1    
   136   69  135 1    
   137   70   71 1    
   138   71  136 1    
   139   71  137 1    
@<TRIPOS>SUBSTRUCTURE
     1 UNK         1 GROUP             0       ****    0 ROOT    
