@<TRIPOS>MOLECULE
3R136
137   139    1
SMALL
USER_CHARGES


@<TRIPOS>ATOM
      1 CA         27.7197   19.8247   -0.2921 C.3       0 UNK        -0.1979 
      2 C          27.8993   20.1778   -1.7673 C.2       0 UNK         0.4864 
      3 O          27.3799   19.4579   -2.6181 O.2       0 UNK        -0.5359 
      4 N          28.6063   21.2591   -2.1375 N.am      1 UNK        -0.4318 
      5 CA         29.3007   22.2549   -1.3026 C.3       1 UNK         0.0824 
      6 C6         30.3599   21.6242   -0.3537 C.3       12 UNK        -0.0944 
      7 S7         31.8369   22.6669   -0.1049 S.3       12 UNK        -0.2672 
      8 C8         32.3957   22.1172    1.5409 C.3       12 UNK         0.0333 
      9 C9         31.8470   22.9853    2.6673 C.ar      12 UNK        -0.0807 
     10 C10        32.6683   23.9301    3.2905 C.ar      12 UNK        -0.0894 
     11 C11        32.1901   24.6933    4.3605 C.ar      12 UNK        -0.0804 
     12 C12        30.8670   24.5333    4.7862 C.ar      12 UNK        -0.0824 
     13 C13        30.0323   23.5973    4.1681 C.ar      12 UNK        -0.0762 
     14 C14        30.5355   22.8183    3.1210 C.ar      12 UNK        -0.0782 
     15 C15        28.6061   23.3808    4.6609 C.3       12 UNK         0.0230 
     16 S16        27.3855   23.5341    3.3164 S.3       12 UNK        -0.2608 
     17 C17        26.6247   25.1616    3.6246 C.3       12 UNK        -0.0989 
     18 CA         27.5838   26.3793    3.5719 C.3       5 UNK         0.0716 
     19 N          28.4462   26.4066    2.3852 N.am      5 UNK        -0.4135 
     20 C          29.4419   27.2896    2.2063 C.2       4 UNK         0.5031 
     21 O          29.7891   28.1074    3.0553 O.2       4 UNK        -0.5229 
     22 CA         30.1399   27.3013    0.8389 C.3       4 UNK         0.0329 
     23 CB         31.3130   26.3110    0.8202 C.3       4 UNK        -0.2001 
     24 N          29.2101   27.0040   -0.2530 N.am      4 UNK        -0.4303 
     25 C          28.2860   27.8662   -0.7045 C.2       3 UNK         0.5044 
     26 O          28.1489   29.0101   -0.2761 O.2       3 UNK        -0.5152 
     27 CA         27.3157   27.3605   -1.7856 C.3       3 UNK         0.0319 
     28 CB         27.9436   27.4906   -3.1821 C.3       3 UNK        -0.2001 
     29 N          26.8856   25.9794   -1.5668 N.am      3 UNK        -0.4354 
     30 C          26.2051   25.5543   -0.4926 C.2       2 UNK         0.4964 
     31 O          25.8032   26.2983    0.4021 O.2       2 UNK        -0.5047 
     32 CA         25.9800   24.0380   -0.3695 C.3       2 UNK         0.0288 
     33 CB         24.6315   23.6409   -0.9898 C.3       2 UNK        -0.2113 
     34 N          27.0480   23.2209   -0.9599 N.am      2 UNK        -0.4145 
     35 C          28.3426   23.2496   -0.6004 C.2       1 UNK         0.5006 
     36 O          28.7860   24.0469    0.2259 O.2       1 UNK        -0.5103 
     37 C          26.7731   27.6865    3.7108 C.2       5 UNK         0.5055 
     38 O          26.6767   28.2268    4.8137 O.2       5 UNK        -0.5220 
     39 N          26.2056   28.1598    2.5905 N.am      6 UNK        -0.4450 
     40 CA         25.4489   29.4070    2.4916 C.3       6 UNK         0.0367 
     41 CB         24.6939   29.4487    1.1520 C.3       6 UNK        -0.1929 
     42 C          26.3416   30.6454    2.6690 C.2       6 UNK         0.5070 
     43 O          26.1178   31.4304    3.5916 O.2       6 UNK        -0.5237 
     44 N          27.3502   30.7988    1.8014 N.am      7 UNK        -0.4739 
     45 CA         28.3178   31.8961    1.8370 C.3       7 UNK         0.0276 
     46 CB         28.7957   32.2014    0.4049 C.3       7 UNK        -0.1927 
     47 C          29.4769   31.5475    2.7834 C.2       7 UNK         0.5013 
     48 O          30.6177   31.4151    2.3378 O.2       7 UNK        -0.5193 
     49 N          29.1581   31.4157    4.0794 N.am      8 UNK        -0.4253 
     50 CA         30.0469   30.9649    5.1601 C.3       8 UNK         0.0242 
     51 CB         29.2724   30.9842    6.4871 C.3       8 UNK        -0.2000 
     52 C          31.3770   31.7296    5.2993 C.2       8 UNK         0.4948 
     53 O          32.3380   31.1678    5.8231 O.2       8 UNK        -0.5275 
     54 N          31.4382   32.9693    4.7919 N.am      9 UNK        -0.4246 
     55 CA         32.6631   33.7626    4.6550 C.3       9 UNK         0.0261 
     56 CB         32.3060   35.1562    4.1142 C.3       9 UNK        -0.1959 
     57 C          33.7376   33.1003    3.7680 C.2       9 UNK         0.5033 
     58 O          34.9252   33.3343    3.9978 O.2       9 UNK        -0.5390 
     59 N          33.3234   32.2614    2.8038 N.am      10 UNK        -0.4215 
     60 CA         34.2162   31.4744    1.9463 C.3       10 UNK         0.0240 
     61 CB         33.4064   30.8520    0.7965 C.3       10 UNK        -0.1982 
     62 C          34.9892   30.3801    2.7056 C.2       10 UNK         0.4970 
     63 O          36.0420   29.9553    2.2277 O.2       10 UNK        -0.4916 
     64 N          34.4712   29.9518    3.8642 N.am      11 UNK        -0.4279 
     65 CA         35.1158   28.9855    4.7644 C.3       11 UNK         0.1003 
     66 C          36.2448   29.6021    5.6427 C.2       11 UNK         0.5709 
     67 N          36.4672   30.9127    5.6346 N.am      11 UNK        -0.7358 
     68 O          36.9464   28.8713    6.3382 O.2       11 UNK        -0.4999 
     69 C69        34.0736   28.2319    5.6322 C.3       12 UNK        -0.0954 
     70 S70        32.8077   27.3790    4.6304 S.3       12 UNK        -0.2268 
     71 C71        33.1182   25.6514    5.0912 C.3       12 UNK         0.0203 
     72 H72        27.5461   20.6997    0.3311 H         1 UNK         0.0888 
     73 H73        26.8607   19.1660   -0.1656 H         1 UNK         0.0888 
     74 H74        28.5973   19.2972    0.0797 H         1 UNK         0.0888 
     75 H75        28.6909   21.4314   -3.1304 H         1 UNK         0.3017 
     76 H76        29.8409   22.8663   -2.0273 H         1 UNK         0.0873 
     77 H77        29.9172   21.3612    0.6051 H         1 UNK         0.0745 
     78 H78        30.7261   20.6860   -0.7737 H         1 UNK         0.0745 
     79 H79        33.4865   22.1380    1.5533 H         1 UNK         0.0705 
     80 H80        32.1177   21.0748    1.7031 H         1 UNK         0.0705 
     81 H81        33.6900   24.0547    2.9584 H         1 UNK         0.1334 
     82 H82        30.4978   25.1263    5.6118 H         1 UNK         0.1417 
     83 H83        29.8945   22.0805    2.6631 H         1 UNK         0.1562 
     84 H84        28.3573   24.0657    5.4727 H         1 UNK         0.0748 
     85 H85        28.5350   22.3759    5.0791 H         1 UNK         0.0748 
     86 H86        26.1291   25.1205    4.5967 H         1 UNK         0.0940 
     87 H87        25.8230   25.2748    2.8926 H         1 UNK         0.0940 
     88 H88        28.2468   26.3209    4.4372 H         1 UNK         0.0703 
     89 H89        28.2703   25.7106    1.6709 H         1 UNK         0.3081 
     90 H90        30.5433   28.3044    0.6808 H         1 UNK         0.0719 
     91 H91        31.8243   26.3090   -0.1421 H         1 UNK         0.0809 
     92 H92        32.0494   26.5702    1.5823 H         1 UNK         0.0809 
     93 H93        30.9812   25.2944    1.0299 H         1 UNK         0.0809 
     94 H94        29.2017   26.0497   -0.5895 H         1 UNK         0.2990 
     95 H95        26.4258   27.9928   -1.7516 H         1 UNK         0.0690 
     96 H96        28.8251   26.8576   -3.2916 H         1 UNK         0.0788 
     97 H97        28.2548   28.5186   -3.3739 H         1 UNK         0.0788 
     98 H98        27.2340   27.2181   -3.9636 H         1 UNK         0.0788 
     99 H99        27.1661   25.2976   -2.2560 H         1 UNK         0.2993 
    100 H100       25.9453   23.8057    0.6963 H         1 UNK         0.0949 
    101 H101       24.6135   23.8167   -2.0662 H         1 UNK         0.0767 
    102 H102       24.4096   22.5876   -0.8163 H         1 UNK         0.0767 
    103 H103       23.8158   24.2177   -0.5511 H         1 UNK         0.0767 
    104 H104       26.7691   22.5600   -1.6706 H         1 UNK         0.3013 
    105 H105       26.2793   27.6052    1.7413 H         1 UNK         0.3121 
    106 H106       24.7085   29.4147    3.2944 H         1 UNK         0.0774 
    107 H107       24.1234   30.3731    1.0535 H         1 UNK         0.0815 
    108 H108       25.3714   29.3893    0.2995 H         1 UNK         0.0815 
    109 H109       23.9884   28.6215    1.0714 H         1 UNK         0.0815 
    110 H110       27.5181   30.0841    1.0947 H         1 UNK         0.2987 
    111 H111       27.8360   32.7981    2.2211 H         1 UNK         0.0949 
    112 H112       29.3352   31.3599   -0.0312 H         1 UNK         0.0806 
    113 H113       27.9587   32.4387   -0.2516 H         1 UNK         0.0806 
    114 H114       29.4709   33.0579    0.3949 H         1 UNK         0.0806 
    115 H115       28.1788   31.5213    4.3185 H         1 UNK         0.3010 
    116 H116       30.3100   29.9289    4.9375 H         1 UNK         0.0829 
    117 H117       29.8944   30.6249    7.3083 H         1 UNK         0.0813 
    118 H118       28.9386   31.9900    6.7447 H         1 UNK         0.0813 
    119 H119       28.3951   30.3379    6.4418 H         1 UNK         0.0813 
    120 H120       30.5996   33.3516    4.3805 H         1 UNK         0.3038 
    121 H121       33.0917   33.8794    5.6525 H         1 UNK         0.0769 
    122 H122       33.1970   35.7797    4.0256 H         1 UNK         0.0811 
    123 H123       31.6148   35.6757    4.7781 H         1 UNK         0.0811 
    124 H124       31.8478   35.1009    3.1258 H         1 UNK         0.0811 
    125 H125       32.3254   32.0856    2.6904 H         1 UNK         0.3204 
    126 H126       34.9518   32.1570    1.5159 H         1 UNK         0.0748 
    127 H127       34.0601   30.3309    0.0957 H         1 UNK         0.0771 
    128 H128       32.6791   30.1260    1.1636 H         1 UNK         0.0771 
    129 H129       32.8650   31.6120    0.2327 H         1 UNK         0.0771 
    130 H130       33.6154   30.3651    4.2125 H         1 UNK         0.2980 
    131 H131       35.6096   28.2364    4.1426 H         1 UNK         0.0545 
    132 H132       35.9071   31.5315    5.0648 H         1 UNK         0.3459 
    133 H133       37.2068   31.2885    6.2063 H         1 UNK         0.3459 
    134 H134       34.5715   27.5019    6.2730 H         1 UNK         0.0616 
    135 H135       33.5658   28.9206    6.3079 H         1 UNK         0.0616 
    136 H136       32.9843   25.5370    6.1680 H         1 UNK         0.0634 
    137 H137       34.1610   25.4079    4.8809 H         1 UNK         0.0634 
@<TRIPOS>BOND
     1    1    2 1    
     2    1   72 1    
     3    1   73 1    
     4    1   74 1    
     5    2    3 2    
     6    2    4 am   BACKBONE|DICT|INTERRES
     7    4    5 1    
     8    4   75 1    
     9    5    6 1    
    10    5   35 1    
    11    5   76 1    
    12    6    7 1    
    13    6   77 1    
    14    6   78 1    
    15    7    8 1    
    16    8    9 1    
    17    8   79 1    
    18    8   80 1    
    19    9   10 ar   
    20    9   14 ar   
    21   10   11 ar   
    22   10   81 1    
    23   11   12 ar   
    24   11   71 1    
    25   12   13 ar   
    26   12   82 1    
    27   13   14 ar   
    28   13   15 1    
    29   14   83 1    
    30   15   16 1    
    31   15   84 1    
    32   15   85 1    
    33   16   17 1    
    34   17   18 1    
    35   17   86 1    
    36   17   87 1    
    37   18   19 1    
    38   18   37 1    
    39   18   88 1    
    40   19   20 am   BACKBONE|DICT|INTERRES
    41   19   89 1    
    42   20   21 2    
    43   20   22 1    
    44   22   23 1    
    45   22   24 1    
    46   22   90 1    
    47   23   91 1    
    48   23   92 1    
    49   23   93 1    
    50   24   25 am   BACKBONE|DICT|INTERRES
    51   24   94 1    
    52   25   26 2    
    53   25   27 1    
    54   27   28 1    
    55   27   29 1    
    56   27   95 1    
    57   28   96 1    
    58   28   97 1    
    59   28   98 1    
    60   29   30 am   BACKBONE|DICT|INTERRES
    61   29   99 1    
    62   30   31 2    
    63   30   32 1    
    64   32   33 1    
    65   32   34 1    
    66   32  100 1    
    67   33  101 1    
    68   33  102 1    
    69   33  103 1    
    70   34   35 am   BACKBONE|DICT|INTERRES
    71   34  104 1    
    72   35   36 2    
    73   37   38 2    
    74   37   39 am   BACKBONE|DICT|INTERRES
    75   39   40 1    
    76   39  105 1    
    77   40   41 1    
    78   40   42 1    
    79   40  106 1    
    80   41  107 1    
    81   41  108 1    
    82   41  109 1    
    83   42   43 2    
    84   42   44 am   BACKBONE|DICT|INTERRES
    85   44   45 1    
    86   44  110 1    
    87   45   46 1    
    88   45   47 1    
    89   45  111 1    
    90   46  112 1    
    91   46  113 1    
    92   46  114 1    
    93   47   48 2    
    94   47   49 am   BACKBONE|DICT|INTERRES
    95   49   50 1    
    96   49  115 1    
    97   50   51 1    
    98   50   52 1    
    99   50  116 1    
   100   51  117 1    
   101   51  118 1    
   102   51  119 1    
   103   52   53 2    
   104   52   54 am   BACKBONE|DICT|INTERRES
   105   54   55 1    
   106   54  120 1    
   107   55   56 1    
   108   55   57 1    
   109   55  121 1    
   110   56  122 1    
   111   56  123 1    
   112   56  124 1    
   113   57   58 2    
   114   57   59 am   BACKBONE|DICT|INTERRES
   115   59   60 1    
   116   59  125 1    
   117   60   61 1    
   118   60   62 1    
   119   60  126 1    
   120   61  127 1    
   121   61  128 1    
   122   61  129 1    
   123   62   63 2    
   124   62   64 am   BACKBONE|DICT|INTERRES
   125   64   65 1    
   126   64  130 1    
   127   65   66 1    
   128   65   69 1    
   129   65  131 1    
   130   66   67 am   BACKBONE|DICT|INTERRES
   131   66   68 2    
   132   67  132 1    
   133   67  133 1    
   134   69   70 1    
   135   69  134 1    
   136   69  135 1    
   137   70   71 1    
   138   71  136 1    
   139   71  137 1    
@<TRIPOS>SUBSTRUCTURE
     1 UNK         1 GROUP             0       ****    0 ROOT    
