@<TRIPOS>MOLECULE
3R136
137   139    1
SMALL
USER_CHARGES


@<TRIPOS>ATOM
      1 CA         24.9735   26.1520    3.3429 C.3       0 UNK        -0.1979 
      2 C          25.4468   24.7070    3.3295 C.2       0 UNK         0.4864 
      3 O          24.6597   23.8029    3.6141 O.2       0 UNK        -0.5359 
      4 N          26.7214   24.4823    2.9860 N.am      1 UNK        -0.4318 
      5 CA         27.2869   23.1512    2.7475 C.3       1 UNK         0.0824 
      6 C6         28.8292   23.1331    2.8476 C.3       12 UNK        -0.0944 
      7 S7         29.5003   23.5254    4.4928 S.3       12 UNK        -0.2672 
      8 C8         31.1870   22.8457    4.3319 C.3       12 UNK         0.0333 
      9 C9         32.1155   23.6999    3.4686 C.ar      12 UNK        -0.0807 
     10 C10        33.1656   24.4105    4.0621 C.ar      12 UNK        -0.0894 
     11 C11        34.0987   25.0950    3.2753 C.ar      12 UNK        -0.0804 
     12 C12        33.9381   25.1179    1.8870 C.ar      12 UNK        -0.0824 
     13 C13        32.8759   24.4441    1.2801 C.ar      12 UNK        -0.0762 
     14 C14        31.9886   23.7129    2.0734 C.ar      12 UNK        -0.0782 
     15 C15        32.7414   24.4520   -0.2371 C.3       12 UNK         0.0230 
     16 S16        32.2828   26.0957   -0.8801 S.3       12 UNK        -0.2608 
     17 C17        30.4661   25.9981   -1.0389 C.3       12 UNK        -0.0989 
     18 CA         29.7602   27.2047   -0.3629 C.3       5 UNK         0.0716 
     19 N          28.6283   27.7022   -1.1461 N.am      5 UNK        -0.4135 
     20 C          28.1626   28.9584   -1.0634 C.2       4 UNK         0.5031 
     21 O          28.6838   29.8315   -0.3688 O.2       4 UNK        -0.5229 
     22 CA         26.9220   29.3313   -1.8959 C.3       4 UNK         0.0329 
     23 CB         27.3405   30.0523   -3.1877 C.3       4 UNK        -0.2001 
     24 N          26.0748   28.1899   -2.2393 N.am      4 UNK        -0.4303 
     25 C          25.3093   27.5139   -1.3730 C.2       3 UNK         0.5044 
     26 O          25.1982   27.8024   -0.1810 O.2       3 UNK        -0.5152 
     27 CA         24.5480   26.2926   -1.9219 C.3       3 UNK         0.0319 
     28 CB         24.3654   26.2994   -3.4577 C.3       3 UNK        -0.2001 
     29 N          25.1624   25.0358   -1.4822 N.am      3 UNK        -0.4354 
     30 C          26.4290   24.6423   -1.6818 C.2       2 UNK         0.4964 
     31 O          27.2843   25.3109   -2.2680 O.2       2 UNK        -0.5047 
     32 CA         26.8063   23.2962   -1.0607 C.3       2 UNK         0.0288 
     33 CB         28.0249   22.6377   -1.7373 C.3       2 UNK        -0.2113 
     34 N          27.0874   23.5365    0.3477 N.am      2 UNK        -0.4145 
     35 C          26.8764   22.6678    1.3445 C.2       1 UNK         0.5006 
     36 O          26.3968   21.5428    1.1944 O.2       1 UNK        -0.5103 
     37 C          29.2667   26.8563    1.0490 C.2       5 UNK         0.5055 
     38 O          28.3475   26.0419    1.1828 O.2       5 UNK        -0.5220 
     39 N          29.8817   27.4650    2.0653 N.am      6 UNK        -0.4450 
     40 CA         29.6195   27.2360    3.4792 C.3       6 UNK         0.0367 
     41 CB         28.2594   27.8343    3.8876 C.3       6 UNK        -0.1929 
     42 C          30.7345   27.9032    4.2792 C.2       6 UNK         0.5070 
     43 O          31.2636   28.9248    3.8352 O.2       6 UNK        -0.5237 
     44 N          31.0111   27.3856    5.4817 N.am      7 UNK        -0.4739 
     45 CA         31.9295   28.0077    6.4435 C.3       7 UNK         0.0276 
     46 CB         32.1460   27.0671    7.6384 C.3       7 UNK        -0.1927 
     47 C          31.4448   29.3932    6.9074 C.2       7 UNK         0.5013 
     48 O          32.2510   30.3163    7.0204 O.2       7 UNK        -0.5193 
     49 N          30.1219   29.5335    7.0801 N.am      8 UNK        -0.4253 
     50 CA         29.4360   30.7956    7.3775 C.3       8 UNK         0.0242 
     51 CB         27.9709   30.4975    7.7356 C.3       8 UNK        -0.2000 
     52 C          29.5082   31.8291    6.2357 C.2       8 UNK         0.4948 
     53 O          29.3799   33.0241    6.5018 O.2       8 UNK        -0.5275 
     54 N          29.7281   31.3612    4.9987 N.am      9 UNK        -0.4246 
     55 CA         29.9348   32.1857    3.8056 C.3       9 UNK         0.0261 
     56 CB         29.2469   31.5064    2.6075 C.3       9 UNK        -0.1959 
     57 C          31.4294   32.4352    3.5189 C.2       9 UNK         0.5033 
     58 O          31.7435   33.0239    2.4837 O.2       9 UNK        -0.5390 
     59 N          32.3176   31.9883    4.4221 N.am      10 UNK        -0.4215 
     60 CA         33.7806   32.0440    4.3427 C.3       10 UNK         0.0240 
     61 CB         34.2917   33.5012    4.3056 C.3       10 UNK        -0.1982 
     62 C          34.3703   31.1599    3.2256 C.2       10 UNK         0.4970 
     63 O          35.4254   31.4951    2.6830 O.2       10 UNK        -0.4916 
     64 N          33.7112   30.0271    2.9418 N.am      11 UNK        -0.4279 
     65 CA         34.1635   28.9637    2.0312 C.3       11 UNK         0.1003 
     66 C          34.2640   29.4347    0.5482 C.2       11 UNK         0.5709 
     67 N          35.1702   28.8864   -0.2518 N.am      11 UNK        -0.7358 
     68 O          33.4772   30.2620    0.0925 O.2       11 UNK        -0.4999 
     69 C69        35.4272   28.2334    2.5783 C.3       12 UNK        -0.0954 
     70 S70        35.1367   27.5078    4.2297 S.3       12 UNK        -0.2268 
     71 C71        35.3271   25.7272    3.9181 C.3       12 UNK         0.0203 
     72 H72        25.2914   26.6486    4.2591 H         1 UNK         0.0888 
     73 H73        25.3688   26.6998    2.4870 H         1 UNK         0.0888 
     74 H74        23.8860   26.1995    3.2905 H         1 UNK         0.0888 
     75 H75        27.3103   25.2566    2.6958 H         1 UNK         0.3017 
     76 H76        26.8840   22.4501    3.4817 H         1 UNK         0.0873 
     77 H77        29.2490   23.8500    2.1441 H         1 UNK         0.0745 
     78 H78        29.2069   22.1500    2.5580 H         1 UNK         0.0745 
     79 H79        31.1392   21.8340    3.9267 H         1 UNK         0.0705 
     80 H80        31.6028   22.7406    5.3352 H         1 UNK         0.0705 
     81 H81        33.2920   24.3842    5.1359 H         1 UNK         0.1334 
     82 H82        34.6557   25.6323    1.2650 H         1 UNK         0.1417 
     83 H83        31.2197   23.1283    1.5926 H         1 UNK         0.1562 
     84 H84        32.0281   23.7004   -0.5785 H         1 UNK         0.0748 
     85 H85        33.7012   24.1697   -0.6723 H         1 UNK         0.0748 
     86 H86        30.0977   25.0428   -0.6613 H         1 UNK         0.0940 
     87 H87        30.2506   25.9839   -2.1088 H         1 UNK         0.0940 
     88 H88        30.4803   28.0233   -0.2863 H         1 UNK         0.0703 
     89 H89        28.1101   27.0094   -1.6784 H         1 UNK         0.3081 
     90 H90        26.3269   30.0244   -1.2973 H         1 UNK         0.0719 
     91 H91        27.9495   30.9297   -2.9647 H         1 UNK         0.0809 
     92 H92        27.9287   29.4051   -3.8397 H         1 UNK         0.0809 
     93 H93        26.4724   30.3979   -3.7495 H         1 UNK         0.0809 
     94 H94        26.1222   27.8559   -3.1911 H         1 UNK         0.2990 
     95 H95        23.5536   26.3282   -1.4740 H         1 UNK         0.0690 
     96 H96        23.7143   25.4841   -3.7734 H         1 UNK         0.0788 
     97 H97        25.3088   26.1865   -3.9929 H         1 UNK         0.0788 
     98 H98        23.8991   27.2262   -3.7951 H         1 UNK         0.0788 
     99 H99        24.5634   24.4347   -0.9332 H         1 UNK         0.2993 
    100 H100       25.9503   22.6252   -1.1627 H         1 UNK         0.0949 
    101 H101       27.8450   22.4911   -2.8030 H         1 UNK         0.0767 
    102 H102       28.9244   23.2448   -1.6388 H         1 UNK         0.0767 
    103 H103       28.2352   21.6589   -1.3059 H         1 UNK         0.0767 
    104 H104       27.4681   24.4544    0.5725 H         1 UNK         0.3013 
    105 H105       30.6243   28.1307    1.8901 H         1 UNK         0.3121 
    106 H106       29.6350   26.1640    3.6639 H         1 UNK         0.0774 
    107 H107       27.4516   27.4574    3.2664 H         1 UNK         0.0815 
    108 H108       28.0155   27.5875    4.9214 H         1 UNK         0.0815 
    109 H109       28.2515   28.9207    3.7978 H         1 UNK         0.0815 
    110 H110       30.5405   26.5410    5.7757 H         1 UNK         0.2987 
    111 H111       32.8891   28.1530    5.9452 H         1 UNK         0.0949 
    112 H112       32.5727   26.1159    7.3194 H         1 UNK         0.0806 
    113 H113       32.8392   27.5055    8.3578 H         1 UNK         0.0806 
    114 H114       31.2151   26.8586    8.1669 H         1 UNK         0.0806 
    115 H115       29.5405   28.7160    6.9669 H         1 UNK         0.3010 
    116 H116       29.9200   31.2411    8.2495 H         1 UNK         0.0829 
    117 H117       27.8990   29.8328    8.5968 H         1 UNK         0.0813 
    118 H118       27.4376   31.4141    7.9923 H         1 UNK         0.0813 
    119 H119       27.4376   30.0327    6.9052 H         1 UNK         0.0813 
    120 H120       29.8746   30.3685    4.8737 H         1 UNK         0.3038 
    121 H121       29.4691   33.1629    3.9491 H         1 UNK         0.0769 
    122 H122       29.3111   32.1277    1.7132 H         1 UNK         0.0811 
    123 H123       28.1883   31.3328    2.8001 H         1 UNK         0.0811 
    124 H124       29.7056   30.5481    2.3631 H         1 UNK         0.0811 
    125 H125       31.9607   31.5094    5.2410 H         1 UNK         0.3204 
    126 H126       34.1374   31.6044    5.2754 H         1 UNK         0.0748 
    127 H127       35.3755   33.5378    4.4223 H         1 UNK         0.0771 
    128 H128       34.0522   33.9925    3.3622 H         1 UNK         0.0771 
    129 H129       33.8608   34.0937    5.1126 H         1 UNK         0.0771 
    130 H130       32.8259   29.8357    3.4033 H         1 UNK         0.2980 
    131 H131       33.3537   28.2333    2.0211 H         1 UNK         0.0545 
    132 H132       35.2089   29.1797   -1.2151 H         1 UNK         0.3459 
    133 H133       35.8219   28.1987    0.0886 H         1 UNK         0.3459 
    134 H134       35.7566   27.4473    1.9015 H         1 UNK         0.0616 
    135 H135       36.2677   28.9245    2.6536 H         1 UNK         0.0616 
    136 H136       36.2084   25.5540    3.2986 H         1 UNK         0.0634 
    137 H137       35.5354   25.2378    4.8707 H         1 UNK         0.0634 
@<TRIPOS>BOND
     1    1    2 1    
     2    1   72 1    
     3    1   73 1    
     4    1   74 1    
     5    2    3 2    
     6    2    4 am   BACKBONE|DICT|INTERRES
     7    4    5 1    
     8    4   75 1    
     9    5    6 1    
    10    5   35 1    
    11    5   76 1    
    12    6    7 1    
    13    6   77 1    
    14    6   78 1    
    15    7    8 1    
    16    8    9 1    
    17    8   79 1    
    18    8   80 1    
    19    9   10 ar   
    20    9   14 ar   
    21   10   11 ar   
    22   10   81 1    
    23   11   12 ar   
    24   11   71 1    
    25   12   13 ar   
    26   12   82 1    
    27   13   14 ar   
    28   13   15 1    
    29   14   83 1    
    30   15   16 1    
    31   15   84 1    
    32   15   85 1    
    33   16   17 1    
    34   17   18 1    
    35   17   86 1    
    36   17   87 1    
    37   18   19 1    
    38   18   37 1    
    39   18   88 1    
    40   19   20 am   BACKBONE|DICT|INTERRES
    41   19   89 1    
    42   20   21 2    
    43   20   22 1    
    44   22   23 1    
    45   22   24 1    
    46   22   90 1    
    47   23   91 1    
    48   23   92 1    
    49   23   93 1    
    50   24   25 am   BACKBONE|DICT|INTERRES
    51   24   94 1    
    52   25   26 2    
    53   25   27 1    
    54   27   28 1    
    55   27   29 1    
    56   27   95 1    
    57   28   96 1    
    58   28   97 1    
    59   28   98 1    
    60   29   30 am   BACKBONE|DICT|INTERRES
    61   29   99 1    
    62   30   31 2    
    63   30   32 1    
    64   32   33 1    
    65   32   34 1    
    66   32  100 1    
    67   33  101 1    
    68   33  102 1    
    69   33  103 1    
    70   34   35 am   BACKBONE|DICT|INTERRES
    71   34  104 1    
    72   35   36 2    
    73   37   38 2    
    74   37   39 am   BACKBONE|DICT|INTERRES
    75   39   40 1    
    76   39  105 1    
    77   40   41 1    
    78   40   42 1    
    79   40  106 1    
    80   41  107 1    
    81   41  108 1    
    82   41  109 1    
    83   42   43 2    
    84   42   44 am   BACKBONE|DICT|INTERRES
    85   44   45 1    
    86   44  110 1    
    87   45   46 1    
    88   45   47 1    
    89   45  111 1    
    90   46  112 1    
    91   46  113 1    
    92   46  114 1    
    93   47   48 2    
    94   47   49 am   BACKBONE|DICT|INTERRES
    95   49   50 1    
    96   49  115 1    
    97   50   51 1    
    98   50   52 1    
    99   50  116 1    
   100   51  117 1    
   101   51  118 1    
   102   51  119 1    
   103   52   53 2    
   104   52   54 am   BACKBONE|DICT|INTERRES
   105   54   55 1    
   106   54  120 1    
   107   55   56 1    
   108   55   57 1    
   109   55  121 1    
   110   56  122 1    
   111   56  123 1    
   112   56  124 1    
   113   57   58 2    
   114   57   59 am   BACKBONE|DICT|INTERRES
   115   59   60 1    
   116   59  125 1    
   117   60   61 1    
   118   60   62 1    
   119   60  126 1    
   120   61  127 1    
   121   61  128 1    
   122   61  129 1    
   123   62   63 2    
   124   62   64 am   BACKBONE|DICT|INTERRES
   125   64   65 1    
   126   64  130 1    
   127   65   66 1    
   128   65   69 1    
   129   65  131 1    
   130   66   67 am   BACKBONE|DICT|INTERRES
   131   66   68 2    
   132   67  132 1    
   133   67  133 1    
   134   69   70 1    
   135   69  134 1    
   136   69  135 1    
   137   70   71 1    
   138   71  136 1    
   139   71  137 1    
@<TRIPOS>SUBSTRUCTURE
     1 UNK         1 GROUP             0       ****    0 ROOT    
