@<TRIPOS>MOLECULE
3R136
137   139    1
SMALL
USER_CHARGES


@<TRIPOS>ATOM
      1 CA         24.9748   20.9402    0.0424 C.3       0 UNK        -0.1979 
      2 C          26.0324   21.5852   -0.8414 C.2       0 UNK         0.4864 
      3 O          25.6932   22.1860   -1.8615 O.2       0 UNK        -0.5359 
      4 N          27.3098   21.4621   -0.4589 N.am      1 UNK        -0.4318 
      5 CA         28.4469   22.1148   -1.1141 C.3       1 UNK         0.0824 
      6 C6         29.7744   21.4447   -0.6829 C.3       12 UNK        -0.0944 
      7 S7         31.2573   22.0958   -1.5359 S.3       12 UNK        -0.2672 
      8 C8         32.5921   21.7544   -0.3390 C.3       12 UNK         0.0333 
      9 C9         32.3983   22.4974    0.9761 C.ar      12 UNK        -0.0807 
     10 C10        32.7237   23.8540    1.0834 C.ar      12 UNK        -0.0894 
     11 C11        32.5033   24.5406    2.2822 C.ar      12 UNK        -0.0804 
     12 C12        31.9747   23.8556    3.3808 C.ar      12 UNK        -0.0824 
     13 C13        31.6073   22.5124    3.2704 C.ar      12 UNK        -0.0762 
     14 C14        31.8553   21.8303    2.0782 C.ar      12 UNK        -0.0782 
     15 C15        30.8762   21.8122    4.4063 C.3       12 UNK         0.0230 
     16 S16        29.0657   22.0040    4.2342 S.3       12 UNK        -0.2608 
     17 C17        28.8067   23.6870    4.8921 C.3       12 UNK        -0.0989 
     18 CA         28.7338   24.7697    3.7771 C.3       5 UNK         0.0716 
     19 N          27.5286   24.7151    2.9482 N.am      5 UNK        -0.4135 
     20 C          26.2700   24.9682    3.3250 C.2       4 UNK         0.5031 
     21 O          25.9265   25.2193    4.4819 O.2       4 UNK        -0.5229 
     22 CA         25.2323   24.9576    2.1853 C.3       4 UNK         0.0329 
     23 CB         23.7814   25.1328    2.6816 C.3       4 UNK        -0.2001 
     24 N          25.5528   25.9433    1.1433 N.am      4 UNK        -0.4303 
     25 C          25.6782   27.2734    1.2812 C.2       3 UNK         0.5044 
     26 O          25.4851   27.8787    2.3362 O.2       3 UNK        -0.5152 
     27 CA         26.1109   28.0493    0.0210 C.3       3 UNK         0.0319 
     28 CB         26.2908   29.5583    0.2762 C.3       3 UNK        -0.2001 
     29 N          27.3551   27.4960   -0.5243 N.am      3 UNK        -0.4354 
     30 C          27.4070   26.4912   -1.4093 C.2       2 UNK         0.4964 
     31 O          26.3962   25.9921   -1.9087 O.2       2 UNK        -0.5047 
     32 CA         28.7847   25.9101   -1.7955 C.3       2 UNK         0.0288 
     33 CB         29.9680   26.4006   -0.9348 C.3       2 UNK        -0.2113 
     34 N          28.7583   24.4432   -1.8208 N.am      2 UNK        -0.4145 
     35 C          28.4248   23.6282   -0.8080 C.2       1 UNK         0.5006 
     36 O          28.1188   24.0162    0.3247 O.2       1 UNK        -0.5103 
     37 C          29.0220   26.1963    4.2933 C.2       5 UNK         0.5055 
     38 O          29.2353   26.3975    5.4903 O.2       5 UNK        -0.5220 
     39 N          29.0638   27.1540    3.3631 N.am      6 UNK        -0.4450 
     40 CA         29.5259   28.5245    3.5551 C.3       6 UNK         0.0367 
     41 CB         28.4182   29.3872    4.1833 C.3       6 UNK        -0.1929 
     42 C          29.9254   29.0567    2.1764 C.2       6 UNK         0.5070 
     43 O          29.3698   28.5969    1.1768 O.2       6 UNK        -0.5237 
     44 N          30.8648   30.0035    2.1287 N.am      7 UNK        -0.4739 
     45 CA         31.3489   30.6156    0.8934 C.3       7 UNK         0.0276 
     46 CB         32.4166   29.7169    0.2410 C.3       7 UNK        -0.1927 
     47 C          31.9152   32.0009    1.2147 C.2       7 UNK         0.5013 
     48 O          32.8325   32.0956    2.0301 O.2       7 UNK        -0.5193 
     49 N          31.3619   33.0483    0.5843 N.am      8 UNK        -0.4253 
     50 CA         31.7779   34.4586    0.6871 C.3       8 UNK         0.0242 
     51 CB         33.1148   34.6697   -0.0561 C.3       8 UNK        -0.2000 
     52 C          31.8155   35.0000    2.1343 C.2       8 UNK         0.4948 
     53 O          32.7189   35.7617    2.4832 O.2       8 UNK        -0.5275 
     54 N          30.8440   34.5654    2.9526 N.am      9 UNK        -0.4246 
     55 CA         30.7022   34.8221    4.3946 C.3       9 UNK         0.0261 
     56 CB         30.5146   36.3277    4.6830 C.3       9 UNK        -0.1959 
     57 C          31.8042   34.1850    5.2722 C.2       9 UNK         0.5033 
     58 O          31.9120   34.5347    6.4494 O.2       9 UNK        -0.5390 
     59 N          32.5721   33.2443    4.7118 N.am      10 UNK        -0.4215 
     60 CA         33.5433   32.3934    5.3944 C.3       10 UNK         0.0240 
     61 CB         34.9512   32.7453    4.8751 C.3       10 UNK        -0.1982 
     62 C          33.1718   30.9237    5.1271 C.2       10 UNK         0.4970 
     63 O          32.0737   30.6521    4.6304 O.2       10 UNK        -0.4916 
     64 N          34.0871   29.9998    5.4531 N.am      11 UNK        -0.4279 
     65 CA         33.9320   28.5473    5.2612 C.3       11 UNK         0.1003 
     66 C          32.7921   27.9379    6.1411 C.2       11 UNK         0.5709 
     67 N          32.3816   26.7072    5.8808 N.am      11 UNK        -0.7358 
     68 O          32.3106   28.5491    7.0939 O.2       11 UNK        -0.4999 
     69 C69        33.8671   28.1951    3.7399 C.3       12 UNK        -0.0954 
     70 S70        34.2348   26.4549    3.3198 S.3       12 UNK        -0.2268 
     71 C71        32.7384   26.0401    2.3713 C.3       12 UNK         0.0203 
     72 H72        24.4228   20.1882   -0.5208 H         1 UNK         0.0888 
     73 H73        25.4121   20.4568    0.9159 H         1 UNK         0.0888 
     74 H74        24.2678   21.6928    0.3906 H         1 UNK         0.0888 
     75 H75        27.5219   20.9812    0.4032 H         1 UNK         0.3017 
     76 H76        28.3321   21.9771   -2.1917 H         1 UNK         0.0873 
     77 H77        29.8849   21.5456    0.3949 H         1 UNK         0.0745 
     78 H78        29.7291   20.3726   -0.8806 H         1 UNK         0.0745 
     79 H79        33.5453   22.0456   -0.7826 H         1 UNK         0.0705 
     80 H80        32.6528   20.6783   -0.1684 H         1 UNK         0.0705 
     81 H81        33.1157   24.3797    0.2233 H         1 UNK         0.1334 
     82 H82        31.7781   24.3862    4.3012 H         1 UNK         0.1417 
     83 H83        31.5738   20.7894    1.9911 H         1 UNK         0.1562 
     84 H84        31.2108   22.1892    5.3739 H         1 UNK         0.0748 
     85 H85        31.1170   20.7481    4.3992 H         1 UNK         0.0748 
     86 H86        29.6165   23.8948    5.5932 H         1 UNK         0.0940 
     87 H87        27.8971   23.6940    5.4941 H         1 UNK         0.0940 
     88 H88        29.5301   24.5685    3.0646 H         1 UNK         0.0703 
     89 H89        27.6979   24.4927    1.9659 H         1 UNK         0.3081 
     90 H90        25.3012   23.9761    1.7130 H         1 UNK         0.0719 
     91 H91        23.6352   26.0894    3.1842 H         1 UNK         0.0809 
     92 H92        23.0707   25.0752    1.8572 H         1 UNK         0.0809 
     93 H93        23.5173   24.3497    3.3932 H         1 UNK         0.0809 
     94 H94        25.7634   25.5596    0.2294 H         1 UNK         0.2990 
     95 H95        25.3077   27.9432   -0.7112 H         1 UNK         0.0690 
     96 H96        26.6055   30.0789   -0.6282 H         1 UNK         0.0788 
     97 H97        27.0307   29.7564    1.0511 H         1 UNK         0.0788 
     98 H98        25.3535   30.0114    0.6014 H         1 UNK         0.0788 
     99 H99        28.2145   27.8410   -0.0996 H         1 UNK         0.2993 
    100 H100       28.9672   26.2322   -2.8217 H         1 UNK         0.0949 
    101 H101       29.8270   26.1776    0.1233 H         1 UNK         0.0767 
    102 H102       30.9000   25.9271   -1.2441 H         1 UNK         0.0767 
    103 H103       30.1112   27.4758   -1.0429 H         1 UNK         0.0767 
    104 H104       28.9763   24.0233   -2.7134 H         1 UNK         0.3013 
    105 H105       28.8741   26.9293    2.3942 H         1 UNK         0.3121 
    106 H106       30.4048   28.5196    4.2028 H         1 UNK         0.0774 
    107 H107       28.7537   30.4168    4.3133 H         1 UNK         0.0815 
    108 H108       27.5229   29.4068    3.5608 H         1 UNK         0.0815 
    109 H109       28.1333   29.0130    5.1665 H         1 UNK         0.0815 
    110 H110       31.2930   30.3401    2.9921 H         1 UNK         0.2987 
    111 H111       30.5142   30.7288    0.1976 H         1 UNK         0.0949 
    112 H112       33.2661   29.5553    0.9059 H         1 UNK         0.0806 
    113 H113       32.0107   28.7406   -0.0228 H         1 UNK         0.0806 
    114 H114       32.7993   30.1676   -0.6754 H         1 UNK         0.0806 
    115 H115       30.5960   32.8701   -0.0515 H         1 UNK         0.3010 
    116 H116       31.0172   35.0443    0.1686 H         1 UNK         0.0829 
    117 H117       33.0586   34.3129   -1.0845 H         1 UNK         0.0813 
    118 H118       33.3801   35.7269   -0.0967 H         1 UNK         0.0813 
    119 H119       33.9356   34.1464    0.4360 H         1 UNK         0.0813 
    120 H120       30.1554   33.9396    2.5576 H         1 UNK         0.3038 
    121 H121       29.7779   34.3224    4.6883 H         1 UNK         0.0769 
    122 H122       30.2360   36.4948    5.7241 H         1 UNK         0.0811 
    123 H123       29.7245   36.7555    4.0662 H         1 UNK         0.0811 
    124 H124       31.4283   36.8937    4.5003 H         1 UNK         0.0811 
    125 H125       32.4109   32.9837    3.7424 H         1 UNK         0.3204 
    126 H126       33.5046   32.5526    6.4737 H         1 UNK         0.0748 
    127 H127       35.7288   32.2160    5.4262 H         1 UNK         0.0771 
    128 H128       35.0629   32.4942    3.8190 H         1 UNK         0.0771 
    129 H129       35.1544   33.8109    4.9842 H         1 UNK         0.0771 
    130 H130       34.9463   30.2956    5.8920 H         1 UNK         0.2980 
    131 H131       34.8518   28.1176    5.6588 H         1 UNK         0.0545 
    132 H132       31.6284   26.3144    6.4240 H         1 UNK         0.3459 
    133 H133       32.8152   26.1858    5.1349 H         1 UNK         0.3459 
    134 H134       34.5979   28.7969    3.1973 H         1 UNK         0.0616 
    135 H135       32.9000   28.4821    3.3287 H         1 UNK         0.0616 
    136 H136       32.8128   26.4827    1.3766 H         1 UNK         0.0634 
    137 H137       31.8663   26.4958    2.8409 H         1 UNK         0.0634 
@<TRIPOS>BOND
     1    1    2 1    
     2    1   72 1    
     3    1   73 1    
     4    1   74 1    
     5    2    3 2    
     6    2    4 am   BACKBONE|DICT|INTERRES
     7    4    5 1    
     8    4   75 1    
     9    5    6 1    
    10    5   35 1    
    11    5   76 1    
    12    6    7 1    
    13    6   77 1    
    14    6   78 1    
    15    7    8 1    
    16    8    9 1    
    17    8   79 1    
    18    8   80 1    
    19    9   10 ar   
    20    9   14 ar   
    21   10   11 ar   
    22   10   81 1    
    23   11   12 ar   
    24   11   71 1    
    25   12   13 ar   
    26   12   82 1    
    27   13   14 ar   
    28   13   15 1    
    29   14   83 1    
    30   15   16 1    
    31   15   84 1    
    32   15   85 1    
    33   16   17 1    
    34   17   18 1    
    35   17   86 1    
    36   17   87 1    
    37   18   19 1    
    38   18   37 1    
    39   18   88 1    
    40   19   20 am   BACKBONE|DICT|INTERRES
    41   19   89 1    
    42   20   21 2    
    43   20   22 1    
    44   22   23 1    
    45   22   24 1    
    46   22   90 1    
    47   23   91 1    
    48   23   92 1    
    49   23   93 1    
    50   24   25 am   BACKBONE|DICT|INTERRES
    51   24   94 1    
    52   25   26 2    
    53   25   27 1    
    54   27   28 1    
    55   27   29 1    
    56   27   95 1    
    57   28   96 1    
    58   28   97 1    
    59   28   98 1    
    60   29   30 am   BACKBONE|DICT|INTERRES
    61   29   99 1    
    62   30   31 2    
    63   30   32 1    
    64   32   33 1    
    65   32   34 1    
    66   32  100 1    
    67   33  101 1    
    68   33  102 1    
    69   33  103 1    
    70   34   35 am   BACKBONE|DICT|INTERRES
    71   34  104 1    
    72   35   36 2    
    73   37   38 2    
    74   37   39 am   BACKBONE|DICT|INTERRES
    75   39   40 1    
    76   39  105 1    
    77   40   41 1    
    78   40   42 1    
    79   40  106 1    
    80   41  107 1    
    81   41  108 1    
    82   41  109 1    
    83   42   43 2    
    84   42   44 am   BACKBONE|DICT|INTERRES
    85   44   45 1    
    86   44  110 1    
    87   45   46 1    
    88   45   47 1    
    89   45  111 1    
    90   46  112 1    
    91   46  113 1    
    92   46  114 1    
    93   47   48 2    
    94   47   49 am   BACKBONE|DICT|INTERRES
    95   49   50 1    
    96   49  115 1    
    97   50   51 1    
    98   50   52 1    
    99   50  116 1    
   100   51  117 1    
   101   51  118 1    
   102   51  119 1    
   103   52   53 2    
   104   52   54 am   BACKBONE|DICT|INTERRES
   105   54   55 1    
   106   54  120 1    
   107   55   56 1    
   108   55   57 1    
   109   55  121 1    
   110   56  122 1    
   111   56  123 1    
   112   56  124 1    
   113   57   58 2    
   114   57   59 am   BACKBONE|DICT|INTERRES
   115   59   60 1    
   116   59  125 1    
   117   60   61 1    
   118   60   62 1    
   119   60  126 1    
   120   61  127 1    
   121   61  128 1    
   122   61  129 1    
   123   62   63 2    
   124   62   64 am   BACKBONE|DICT|INTERRES
   125   64   65 1    
   126   64  130 1    
   127   65   66 1    
   128   65   69 1    
   129   65  131 1    
   130   66   67 am   BACKBONE|DICT|INTERRES
   131   66   68 2    
   132   67  132 1    
   133   67  133 1    
   134   69   70 1    
   135   69  134 1    
   136   69  135 1    
   137   70   71 1    
   138   71  136 1    
   139   71  137 1    
@<TRIPOS>SUBSTRUCTURE
     1 UNK         1 GROUP             0       ****    0 ROOT    
