@<TRIPOS>MOLECULE
3R136
137   139    1
SMALL
USER_CHARGES


@<TRIPOS>ATOM
      1 CA         27.8085   23.1423   -3.4044 C.3       0 UNK        -0.1979 
      2 C          28.4749   23.8105   -2.2122 C.2       0 UNK         0.4864 
      3 O          28.1327   24.9473   -1.8780 O.2       0 UNK        -0.5359 
      4 N          29.4115   23.1103   -1.5526 N.am      1 UNK        -0.4318 
      5 CA         30.1655   23.6065   -0.3931 C.3       1 UNK         0.0824 
      6 C6         31.2918   22.6341    0.0458 C.3       12 UNK        -0.0944 
      7 S7         30.6804   21.0706    0.7751 S.3       12 UNK        -0.2672 
      8 C8         31.8524   20.7624    2.1386 C.3       12 UNK         0.0333 
      9 C9         32.0130   21.9143    3.1310 C.ar      12 UNK        -0.0807 
     10 C10        33.2998   22.3623    3.4464 C.ar      12 UNK        -0.0894 
     11 C11        33.4979   23.3557    4.4086 C.ar      12 UNK        -0.0804 
     12 C12        32.3916   23.9185    5.0501 C.ar      12 UNK        -0.0824 
     13 C13        31.0955   23.4908    4.7423 C.ar      12 UNK        -0.0762 
     14 C14        30.9113   22.4862    3.7820 C.ar      12 UNK        -0.0782 
     15 C15        29.9082   24.0721    5.5029 C.3       12 UNK         0.0230 
     16 S16        29.0231   25.3696    4.5809 S.3       12 UNK        -0.2608 
     17 C17        30.2918   26.6668    4.4048 C.3       12 UNK        -0.0989 
     18 CA         29.7964   27.9557    3.6973 C.3       5 UNK         0.0716 
     19 N          29.4506   27.7333    2.2875 N.am      5 UNK        -0.4135 
     20 C          29.4058   28.7095    1.3699 C.2       4 UNK         0.5031 
     21 O          29.6763   29.8828    1.6198 O.2       4 UNK        -0.5229 
     22 CA         28.9478   28.3446   -0.0533 C.3       4 UNK         0.0329 
     23 CB         30.1243   27.8238   -0.8897 C.3       4 UNK        -0.2001 
     24 N          27.8426   27.3837   -0.1078 N.am      4 UNK        -0.4303 
     25 C          26.6357   27.5741    0.4453 C.2       3 UNK         0.5044 
     26 O          26.3386   28.5597    1.1181 O.2       3 UNK        -0.5152 
     27 CA         25.6013   26.4593    0.2519 C.3       3 UNK         0.0319 
     28 CB         25.0535   26.4460   -1.1845 C.3       3 UNK        -0.2001 
     29 N          26.1920   25.1649    0.5809 N.am      3 UNK        -0.4354 
     30 C          26.3376   24.7144    1.8356 C.2       2 UNK         0.4964 
     31 O          25.8559   25.2717    2.8224 O.2       2 UNK        -0.5047 
     32 CA         27.1600   23.4292    2.0279 C.3       2 UNK         0.0288 
     33 CB         26.2380   22.1997    2.0575 C.3       2 UNK        -0.2113 
     34 N          28.1910   23.2287    1.0091 N.am      2 UNK        -0.4145 
     35 C          29.2532   24.0189    0.7814 C.2       1 UNK         0.5006 
     36 O          29.5021   25.0523    1.3995 O.2       1 UNK        -0.5103 
     37 C          28.7076   28.7036    4.5015 C.2       5 UNK         0.5055 
     38 O          29.0120   29.2001    5.5876 O.2       5 UNK        -0.5220 
     39 N          27.4775   28.7800    3.9732 N.am      6 UNK        -0.4450 
     40 CA         26.3743   29.5452    4.5529 C.3       6 UNK         0.0367 
     41 CB         25.0667   28.7482    4.4041 C.3       6 UNK        -0.1929 
     42 C          26.2511   30.9246    3.8870 C.2       6 UNK         0.5070 
     43 O          26.0734   31.9214    4.5877 O.2       6 UNK        -0.5237 
     44 N          26.3232   30.9581    2.5492 N.am      7 UNK        -0.4739 
     45 CA         26.1342   32.1571    1.7302 C.3       7 UNK         0.0276 
     46 CB         25.8007   31.7289    0.2913 C.3       7 UNK        -0.1927 
     47 C          27.3377   33.1138    1.7313 C.2       7 UNK         0.5013 
     48 O          27.1391   34.3164    1.5475 O.2       7 UNK        -0.5193 
     49 N          28.5503   32.5780    1.9085 N.am      8 UNK        -0.4253 
     50 CA         29.8110   33.3173    1.8917 C.3       8 UNK         0.0242 
     51 CB         30.5309   33.0417    0.5548 C.3       8 UNK        -0.2000 
     52 C          30.6616   32.9394    3.1156 C.2       8 UNK         0.4948 
     53 O          30.1621   32.3192    4.0567 O.2       8 UNK        -0.5275 
     54 N          31.9391   33.3421    3.0899 N.am      9 UNK        -0.4246 
     55 CA         32.9115   33.1712    4.1758 C.3       9 UNK         0.0261 
     56 CB         34.0950   34.1243    3.9246 C.3       9 UNK        -0.1959 
     57 C          33.4144   31.7270    4.3904 C.2       9 UNK         0.5033 
     58 O          34.1469   31.5068    5.3576 O.2       9 UNK        -0.5390 
     59 N          33.0279   30.7931    3.5045 N.am      10 UNK        -0.4215 
     60 CA         33.4229   29.3765    3.4262 C.3       10 UNK         0.0240 
     61 CB         33.2504   28.6755    4.7966 C.3       10 UNK        -0.1982 
     62 C          34.8531   29.1926    2.8661 C.2       10 UNK         0.4970 
     63 O          35.6462   30.1342    2.8962 O.2       10 UNK        -0.4916 
     64 N          35.2251   28.0136    2.3514 N.am      11 UNK        -0.4279 
     65 CA         34.4166   26.8103    2.0942 C.3       11 UNK         0.1003 
     66 C          34.0843   26.6895    0.5852 C.2       11 UNK         0.5709 
     67 N          32.9720   26.0464    0.2515 N.am      11 UNK        -0.7358 
     68 O          34.8343   27.1412   -0.2824 O.2       11 UNK        -0.4999 
     69 C69        35.1530   25.5387    2.5870 C.3       12 UNK        -0.0954 
     70 S70        35.2845   25.5095    4.4056 S.3       12 UNK        -0.2268 
     71 C71        34.9130   23.7709    4.7948 C.3       12 UNK         0.0203 
     72 H72        26.7331   23.0766   -3.2438 H         1 UNK         0.0888 
     73 H73        27.9830   23.7281   -4.3061 H         1 UNK         0.0888 
     74 H74        28.1895   22.1359   -3.5739 H         1 UNK         0.0888 
     75 H75        29.6451   22.1760   -1.8592 H         1 UNK         0.3017 
     76 H76        30.6543   24.5203   -0.7336 H         1 UNK         0.0873 
     77 H77        31.9502   23.1395    0.7535 H         1 UNK         0.0745 
     78 H78        31.9245   22.3875   -0.8083 H         1 UNK         0.0745 
     79 H79        32.8149   20.4986    1.6974 H         1 UNK         0.0705 
     80 H80        31.5196   19.8795    2.6859 H         1 UNK         0.0705 
     81 H81        34.1565   21.9136    2.9621 H         1 UNK         0.1334 
     82 H82        32.5445   24.6785    5.8045 H         1 UNK         0.1417 
     83 H83        29.9132   22.1372    3.5539 H         1 UNK         0.1562 
     84 H84        30.2301   24.4769    6.4640 H         1 UNK         0.0748 
     85 H85        29.2038   23.2721    5.7363 H         1 UNK         0.0748 
     86 H86        31.1300   26.2498    3.8449 H         1 UNK         0.0940 
     87 H87        30.6826   26.9062    5.3956 H         1 UNK         0.0940 
     88 H88        30.6411   28.6434    3.6928 H         1 UNK         0.0703 
     89 H89        29.2699   26.7695    2.0080 H         1 UNK         0.3081 
     90 H90        28.5908   29.2666   -0.5177 H         1 UNK         0.0719 
     91 H91        29.8414   27.6925   -1.9346 H         1 UNK         0.0809 
     92 H92        30.9657   28.5178   -0.8634 H         1 UNK         0.0809 
     93 H93        30.4771   26.8642   -0.5170 H         1 UNK         0.0809 
     94 H94        27.9995   26.5368   -0.6469 H         1 UNK         0.2990 
     95 H95        24.7638   26.6543    0.9258 H         1 UNK         0.0690 
     96 H96        24.5863   27.4012   -1.4287 H         1 UNK         0.0788 
     97 H97        24.2950   25.6732   -1.3103 H         1 UNK         0.0788 
     98 H98        25.8356   26.2696   -1.9233 H         1 UNK         0.0788 
     99 H99        26.6549   24.6723   -0.1721 H         1 UNK         0.2993 
    100 H100       27.6599   23.4971    2.9937 H         1 UNK         0.0949 
    101 H101       25.7239   22.0566    1.1062 H         1 UNK         0.0767 
    102 H102       26.7967   21.2900    2.2794 H         1 UNK         0.0767 
    103 H103       25.4737   22.3046    2.8292 H         1 UNK         0.0767 
    104 H104       28.1008   22.4022    0.4361 H         1 UNK         0.3013 
    105 H105       27.3101   28.3638    3.0656 H         1 UNK         0.3121 
    106 H106       26.5462   29.7030    5.6202 H         1 UNK         0.0774 
    107 H107       24.8186   28.5585    3.3588 H         1 UNK         0.0815 
    108 H108       24.2287   29.2895    4.8455 H         1 UNK         0.0815 
    109 H109       25.1327   27.7835    4.9083 H         1 UNK         0.0815 
    110 H110       26.4212   30.0794    2.0415 H         1 UNK         0.2987 
    111 H111       25.2792   32.7091    2.1271 H         1 UNK         0.0949 
    112 H112       26.6162   31.1605   -0.1581 H         1 UNK         0.0806 
    113 H113       24.9048   31.1082    0.2594 H         1 UNK         0.0806 
    114 H114       25.6172   32.5969   -0.3439 H         1 UNK         0.0806 
    115 H115       28.6398   31.5808    2.0810 H         1 UNK         0.3010 
    116 H116       29.6184   34.3896    1.9696 H         1 UNK         0.0829 
    117 H117       29.8752   33.2436   -0.2927 H         1 UNK         0.0813 
    118 H118       31.4085   33.6763    0.4292 H         1 UNK         0.0813 
    119 H119       30.8580   32.0040    0.4773 H         1 UNK         0.0813 
    120 H120       32.2658   33.8444    2.2763 H         1 UNK         0.3038 
    121 H121       32.4262   33.4743    5.1070 H         1 UNK         0.0769 
    122 H122       34.6253   33.8742    3.0038 H         1 UNK         0.0811 
    123 H123       34.8189   34.0741    4.7394 H         1 UNK         0.0811 
    124 H124       33.7654   35.1617    3.8545 H         1 UNK         0.0811 
    125 H125       32.4297   31.1113    2.7552 H         1 UNK         0.3204 
    126 H126       32.7240   28.9431    2.7111 H         1 UNK         0.0748 
    127 H127       33.1980   27.5930    4.6983 H         1 UNK         0.0771 
    128 H128       34.0855   28.8883    5.4656 H         1 UNK         0.0771 
    129 H129       32.3386   28.9942    5.3025 H         1 UNK         0.0771 
    130 H130       36.1579   27.9571    1.9702 H         1 UNK         0.2980 
    131 H131       33.4640   26.8593    2.6178 H         1 UNK         0.0545 
    132 H132       32.3530   25.6670    0.9528 H         1 UNK         0.3459 
    133 H133       32.7592   25.9443   -0.7274 H         1 UNK         0.3459 
    134 H134       34.6303   24.6412    2.2530 H         1 UNK         0.0616 
    135 H135       36.1572   25.4786    2.1637 H         1 UNK         0.0616 
    136 H136       35.0443   23.6192    5.8671 H         1 UNK         0.0634 
    137 H137       35.6540   23.1372    4.3048 H         1 UNK         0.0634 
@<TRIPOS>BOND
     1    1    2 1    
     2    1   72 1    
     3    1   73 1    
     4    1   74 1    
     5    2    3 2    
     6    2    4 am   BACKBONE|DICT|INTERRES
     7    4    5 1    
     8    4   75 1    
     9    5    6 1    
    10    5   35 1    
    11    5   76 1    
    12    6    7 1    
    13    6   77 1    
    14    6   78 1    
    15    7    8 1    
    16    8    9 1    
    17    8   79 1    
    18    8   80 1    
    19    9   10 ar   
    20    9   14 ar   
    21   10   11 ar   
    22   10   81 1    
    23   11   12 ar   
    24   11   71 1    
    25   12   13 ar   
    26   12   82 1    
    27   13   14 ar   
    28   13   15 1    
    29   14   83 1    
    30   15   16 1    
    31   15   84 1    
    32   15   85 1    
    33   16   17 1    
    34   17   18 1    
    35   17   86 1    
    36   17   87 1    
    37   18   19 1    
    38   18   37 1    
    39   18   88 1    
    40   19   20 am   BACKBONE|DICT|INTERRES
    41   19   89 1    
    42   20   21 2    
    43   20   22 1    
    44   22   23 1    
    45   22   24 1    
    46   22   90 1    
    47   23   91 1    
    48   23   92 1    
    49   23   93 1    
    50   24   25 am   BACKBONE|DICT|INTERRES
    51   24   94 1    
    52   25   26 2    
    53   25   27 1    
    54   27   28 1    
    55   27   29 1    
    56   27   95 1    
    57   28   96 1    
    58   28   97 1    
    59   28   98 1    
    60   29   30 am   BACKBONE|DICT|INTERRES
    61   29   99 1    
    62   30   31 2    
    63   30   32 1    
    64   32   33 1    
    65   32   34 1    
    66   32  100 1    
    67   33  101 1    
    68   33  102 1    
    69   33  103 1    
    70   34   35 am   BACKBONE|DICT|INTERRES
    71   34  104 1    
    72   35   36 2    
    73   37   38 2    
    74   37   39 am   BACKBONE|DICT|INTERRES
    75   39   40 1    
    76   39  105 1    
    77   40   41 1    
    78   40   42 1    
    79   40  106 1    
    80   41  107 1    
    81   41  108 1    
    82   41  109 1    
    83   42   43 2    
    84   42   44 am   BACKBONE|DICT|INTERRES
    85   44   45 1    
    86   44  110 1    
    87   45   46 1    
    88   45   47 1    
    89   45  111 1    
    90   46  112 1    
    91   46  113 1    
    92   46  114 1    
    93   47   48 2    
    94   47   49 am   BACKBONE|DICT|INTERRES
    95   49   50 1    
    96   49  115 1    
    97   50   51 1    
    98   50   52 1    
    99   50  116 1    
   100   51  117 1    
   101   51  118 1    
   102   51  119 1    
   103   52   53 2    
   104   52   54 am   BACKBONE|DICT|INTERRES
   105   54   55 1    
   106   54  120 1    
   107   55   56 1    
   108   55   57 1    
   109   55  121 1    
   110   56  122 1    
   111   56  123 1    
   112   56  124 1    
   113   57   58 2    
   114   57   59 am   BACKBONE|DICT|INTERRES
   115   59   60 1    
   116   59  125 1    
   117   60   61 1    
   118   60   62 1    
   119   60  126 1    
   120   61  127 1    
   121   61  128 1    
   122   61  129 1    
   123   62   63 2    
   124   62   64 am   BACKBONE|DICT|INTERRES
   125   64   65 1    
   126   64  130 1    
   127   65   66 1    
   128   65   69 1    
   129   65  131 1    
   130   66   67 am   BACKBONE|DICT|INTERRES
   131   66   68 2    
   132   67  132 1    
   133   67  133 1    
   134   69   70 1    
   135   69  134 1    
   136   69  135 1    
   137   70   71 1    
   138   71  136 1    
   139   71  137 1    
@<TRIPOS>SUBSTRUCTURE
     1 UNK         1 GROUP             0       ****    0 ROOT    
