@<TRIPOS>MOLECULE
3R136
137   139    1
SMALL
USER_CHARGES


@<TRIPOS>ATOM
      1 CA         29.2390   25.4004    3.6662 C.3       0 UNK        -0.1979 
      2 C          28.7921   24.3882    2.6265 C.2       0 UNK         0.4864 
      3 O          28.5165   24.7761    1.4893 O.2       0 UNK        -0.5359 
      4 N          28.6964   23.1171    3.0404 N.am      1 UNK        -0.4318 
      5 CA         28.2446   21.9445    2.2817 C.3       1 UNK         0.0824 
      6 C6         29.3574   21.3290    1.3796 C.3       12 UNK        -0.0944 
      7 S7         29.7003   22.1796   -0.2033 S.3       12 UNK        -0.2672 
      8 C8         31.5172   22.1030   -0.2898 C.3       12 UNK         0.0333 
      9 C9         32.1716   23.3612    0.2623 C.ar      12 UNK        -0.0807 
     10 C10        32.6955   23.3917    1.5585 C.ar      12 UNK        -0.0894 
     11 C11        33.3393   24.5391    2.0375 C.ar      12 UNK        -0.0804 
     12 C12        33.4576   25.6597    1.2094 C.ar      12 UNK        -0.0824 
     13 C13        32.9168   25.6468   -0.0803 C.ar      12 UNK        -0.0762 
     14 C14        32.2799   24.4939   -0.5483 C.ar      12 UNK        -0.0782 
     15 C15        32.9830   26.8884   -0.9612 C.3       12 UNK         0.0230 
     16 S16        31.9800   28.2705   -0.3156 S.3       12 UNK        -0.2608 
     17 C17        30.5166   27.4092    0.3511 C.3       12 UNK        -0.0989 
     18 CA         29.3564   28.3382    0.7712 C.3       5 UNK         0.0716 
     19 N          28.1370   27.5453    0.9402 N.am      5 UNK        -0.4135 
     20 C          26.8915   28.0139    1.0896 C.2       4 UNK         0.5031 
     21 O          26.6199   29.2093    1.2164 O.2       4 UNK        -0.5229 
     22 CA         25.7791   26.9444    1.0969 C.3       4 UNK         0.0329 
     23 CB         24.3657   27.5357    0.9130 C.3       4 UNK        -0.2001 
     24 N          26.0464   25.8717    0.1263 N.am      4 UNK        -0.4303 
     25 C          26.1624   25.9970   -1.2069 C.2       3 UNK         0.5044 
     26 O          25.9204   27.0334   -1.8265 O.2       3 UNK        -0.5152 
     27 CA         26.6786   24.7762   -1.9909 C.3       3 UNK         0.0319 
     28 CB         28.1674   24.9593   -2.3316 C.3       3 UNK        -0.2001 
     29 N          26.5169   23.5057   -1.2836 N.am      3 UNK        -0.4354 
     30 C          25.3524   22.8664   -1.0993 C.2       2 UNK         0.4964 
     31 O          24.2745   23.2727   -1.5342 O.2       2 UNK        -0.5047 
     32 CA         25.3909   21.5490   -0.2996 C.3       2 UNK         0.0288 
     33 CB         25.2893   20.3416   -1.2463 C.3       2 UNK        -0.2113 
     34 N          26.5957   21.4086    0.5239 N.am      2 UNK        -0.4145 
     35 C          26.8544   22.1311    1.6227 C.2       1 UNK         0.5006 
     36 O          26.0355   22.9099    2.1197 O.2       1 UNK        -0.5103 
     37 C          29.7081   29.1881    2.0127 C.2       5 UNK         0.5055 
     38 O          30.3530   30.2269    1.8692 O.2       5 UNK        -0.5220 
     39 N          29.2360   28.7741    3.1992 N.am      6 UNK        -0.4450 
     40 CA         29.4220   29.4501    4.4901 C.3       6 UNK         0.0367 
     41 CB         28.8324   28.5750    5.6085 C.3       6 UNK        -0.1929 
     42 C          28.8458   30.8797    4.5615 C.2       6 UNK         0.5070 
     43 O          29.1996   31.6295    5.4712 O.2       6 UNK        -0.5237 
     44 N          27.9780   31.2430    3.6070 N.am      7 UNK        -0.4739 
     45 CA         27.4824   32.6051    3.4105 C.3       7 UNK         0.0276 
     46 CB         26.2299   32.5493    2.5205 C.3       7 UNK        -0.1927 
     47 C          28.5319   33.5583    2.8019 C.2       7 UNK         0.5013 
     48 O          28.3424   34.7723    2.8921 O.2       7 UNK        -0.5193 
     49 N          29.5906   33.0149    2.1822 N.am      8 UNK        -0.4253 
     50 CA         30.6380   33.7714    1.4932 C.3       8 UNK         0.0242 
     51 CB         30.5569   33.4904   -0.0175 C.3       8 UNK        -0.2000 
     52 C          32.0359   33.4374    2.0327 C.2       8 UNK         0.4948 
     53 O          32.7967   34.3581    2.3355 O.2       8 UNK        -0.5275 
     54 N          32.3612   32.1429    2.1291 N.am      9 UNK        -0.4246 
     55 CA         33.6462   31.6379    2.6122 C.3       9 UNK         0.0261 
     56 CB         33.9820   30.3444    1.8520 C.3       9 UNK        -0.1959 
     57 C          33.5819   31.3495    4.1161 C.2       9 UNK         0.5033 
     58 O          32.4984   31.1313    4.6597 O.2       9 UNK        -0.5390 
     59 N          34.7529   31.2607    4.7574 N.am      10 UNK        -0.4215 
     60 CA         34.9157   30.8981    6.1709 C.3       10 UNK         0.0240 
     61 CB         36.2558   31.4653    6.6781 C.3       10 UNK        -0.1982 
     62 C          34.7789   29.3790    6.4279 C.2       10 UNK         0.4970 
     63 O          35.5560   28.8176    7.2025 O.2       10 UNK        -0.4916 
     64 N          33.8074   28.7353    5.7698 N.am      11 UNK        -0.4279 
     65 CA         33.4516   27.3254    5.9620 C.3       11 UNK         0.1003 
     66 C          32.6606   27.1316    7.2854 C.2       11 UNK         0.5709 
     67 N          32.9856   26.1107    8.0667 N.am      11 UNK        -0.7358 
     68 O          31.7394   27.8853    7.5936 O.2       11 UNK        -0.4999 
     69 C69        32.6856   26.7765    4.7288 C.3       12 UNK        -0.0954 
     70 S70        32.6578   24.9500    4.6927 S.3       12 UNK        -0.2268 
     71 C71        33.9209   24.5562    3.4435 C.3       12 UNK         0.0203 
     72 H72        30.0712   25.9867    3.2818 H         1 UNK         0.0888 
     73 H73        28.4128   26.0661    3.9084 H         1 UNK         0.0888 
     74 H74        29.5661   24.9207    4.5886 H         1 UNK         0.0888 
     75 H75        28.9161   22.9206    4.0063 H         1 UNK         0.3017 
     76 H76        28.0537   21.2003    3.0564 H         1 UNK         0.0873 
     77 H77        29.1133   20.2911    1.1471 H         1 UNK         0.0745 
     78 H78        30.2813   21.2743    1.9571 H         1 UNK         0.0745 
     79 H79        31.8853   21.2143    0.2249 H         1 UNK         0.0705 
     80 H80        31.8052   21.9793   -1.3348 H         1 UNK         0.0705 
     81 H81        32.6096   22.5207    2.1936 H         1 UNK         0.1334 
     82 H82        33.9488   26.5522    1.5721 H         1 UNK         0.1417 
     83 H83        31.8594   24.4760   -1.5447 H         1 UNK         0.1562 
     84 H84        32.6449   26.6598   -1.9731 H         1 UNK         0.0748 
     85 H85        34.0199   27.2145   -1.0524 H         1 UNK         0.0748 
     86 H86        30.8196   26.7831    1.1913 H         1 UNK         0.0940 
     87 H87        30.1739   26.7219   -0.4240 H         1 UNK         0.0940 
     88 H88        29.1648   29.0359   -0.0468 H         1 UNK         0.0703 
     89 H89        28.2572   26.5336    0.9131 H         1 UNK         0.3081 
     90 H90        25.8145   26.4755    2.0814 H         1 UNK         0.0719 
     91 H91        23.6053   26.7549    0.9200 H         1 UNK         0.0809 
     92 H92        24.1264   28.2291    1.7202 H         1 UNK         0.0809 
     93 H93        24.2730   28.0871   -0.0230 H         1 UNK         0.0809 
     94 H94        26.3179   24.9833    0.5308 H         1 UNK         0.2990 
     95 H95        26.1154   24.7239   -2.9251 H         1 UNK         0.0690 
     96 H96        28.5311   24.1527   -2.9683 H         1 UNK         0.0788 
     97 H97        28.7849   24.9782   -1.4325 H         1 UNK         0.0788 
     98 H98        28.3377   25.8953   -2.8655 H         1 UNK         0.0788 
     99 H99        27.3557   23.1055   -0.8842 H         1 UNK         0.2993 
    100 H100       24.5205   21.5439    0.3605 H         1 UNK         0.0949 
    101 H101       26.1393   20.2901   -1.9281 H         1 UNK         0.0767 
    102 H102       25.2453   19.4043   -0.6911 H         1 UNK         0.0767 
    103 H103       24.3857   20.3978   -1.8553 H         1 UNK         0.0767 
    104 H104       27.3180   20.7968    0.1707 H         1 UNK         0.3013 
    105 H105       28.6708   27.9402    3.2082 H         1 UNK         0.3121 
    106 H106       30.4959   29.5316    4.6601 H         1 UNK         0.0774 
    107 H107       27.7659   28.3975    5.4660 H         1 UNK         0.0815 
    108 H108       28.9562   29.0527    6.5817 H         1 UNK         0.0815 
    109 H109       29.3359   27.6106    5.6690 H         1 UNK         0.0815 
    110 H110       27.7156   30.5611    2.9064 H         1 UNK         0.2987 
    111 H111       27.1956   33.0136    4.3822 H         1 UNK         0.0949 
    112 H112       26.4545   32.1404    1.5342 H         1 UNK         0.0806 
    113 H113       25.4513   31.9316    2.9685 H         1 UNK         0.0806 
    114 H114       25.8086   33.5447    2.3736 H         1 UNK         0.0806 
    115 H115       29.6932   32.0038    2.1848 H         1 UNK         0.3010 
    116 H116       30.4910   34.8434    1.6408 H         1 UNK         0.0829 
    117 H117       29.6005   33.8151   -0.4275 H         1 UNK         0.0813 
    118 H118       31.3395   34.0248   -0.5577 H         1 UNK         0.0813 
    119 H119       30.6717   32.4283   -0.2394 H         1 UNK         0.0813 
    120 H120       31.6519   31.4354    1.9411 H         1 UNK         0.3038 
    121 H121       34.4308   32.3737    2.4227 H         1 UNK         0.0769 
    122 H122       33.2569   29.5571    2.0636 H         1 UNK         0.0811 
    123 H123       34.9655   29.9636    2.1294 H         1 UNK         0.0811 
    124 H124       33.9916   30.5083    0.7742 H         1 UNK         0.0811 
    125 H125       35.6040   31.4038    4.2322 H         1 UNK         0.3204 
    126 H126       34.1201   31.3804    6.7431 H         1 UNK         0.0748 
    127 H127       37.1058   31.0058    6.1721 H         1 UNK         0.0771 
    128 H128       36.3147   32.5429    6.5238 H         1 UNK         0.0771 
    129 H129       36.3779   31.2896    7.7479 H         1 UNK         0.0771 
    130 H130       33.1625   29.2992    5.2279 H         1 UNK         0.2980 
    131 H131       34.3892   26.7704    6.0391 H         1 UNK         0.0545 
    132 H132       32.4741   25.9668    8.9230 H         1 UNK         0.3459 
    133 H133       33.7249   25.4754    7.8104 H         1 UNK         0.3459 
    134 H134       31.6605   27.1489    4.7111 H         1 UNK         0.0616 
    135 H135       33.1459   27.1358    3.8077 H         1 UNK         0.0616 
    136 H136       34.3403   23.5754    3.6725 H         1 UNK         0.0634 
    137 H137       34.7490   25.2630    3.5158 H         1 UNK         0.0634 
@<TRIPOS>BOND
     1    1    2 1    
     2    1   72 1    
     3    1   73 1    
     4    1   74 1    
     5    2    3 2    
     6    2    4 am   BACKBONE|DICT|INTERRES
     7    4    5 1    
     8    4   75 1    
     9    5    6 1    
    10    5   35 1    
    11    5   76 1    
    12    6    7 1    
    13    6   77 1    
    14    6   78 1    
    15    7    8 1    
    16    8    9 1    
    17    8   79 1    
    18    8   80 1    
    19    9   10 ar   
    20    9   14 ar   
    21   10   11 ar   
    22   10   81 1    
    23   11   12 ar   
    24   11   71 1    
    25   12   13 ar   
    26   12   82 1    
    27   13   14 ar   
    28   13   15 1    
    29   14   83 1    
    30   15   16 1    
    31   15   84 1    
    32   15   85 1    
    33   16   17 1    
    34   17   18 1    
    35   17   86 1    
    36   17   87 1    
    37   18   19 1    
    38   18   37 1    
    39   18   88 1    
    40   19   20 am   BACKBONE|DICT|INTERRES
    41   19   89 1    
    42   20   21 2    
    43   20   22 1    
    44   22   23 1    
    45   22   24 1    
    46   22   90 1    
    47   23   91 1    
    48   23   92 1    
    49   23   93 1    
    50   24   25 am   BACKBONE|DICT|INTERRES
    51   24   94 1    
    52   25   26 2    
    53   25   27 1    
    54   27   28 1    
    55   27   29 1    
    56   27   95 1    
    57   28   96 1    
    58   28   97 1    
    59   28   98 1    
    60   29   30 am   BACKBONE|DICT|INTERRES
    61   29   99 1    
    62   30   31 2    
    63   30   32 1    
    64   32   33 1    
    65   32   34 1    
    66   32  100 1    
    67   33  101 1    
    68   33  102 1    
    69   33  103 1    
    70   34   35 am   BACKBONE|DICT|INTERRES
    71   34  104 1    
    72   35   36 2    
    73   37   38 2    
    74   37   39 am   BACKBONE|DICT|INTERRES
    75   39   40 1    
    76   39  105 1    
    77   40   41 1    
    78   40   42 1    
    79   40  106 1    
    80   41  107 1    
    81   41  108 1    
    82   41  109 1    
    83   42   43 2    
    84   42   44 am   BACKBONE|DICT|INTERRES
    85   44   45 1    
    86   44  110 1    
    87   45   46 1    
    88   45   47 1    
    89   45  111 1    
    90   46  112 1    
    91   46  113 1    
    92   46  114 1    
    93   47   48 2    
    94   47   49 am   BACKBONE|DICT|INTERRES
    95   49   50 1    
    96   49  115 1    
    97   50   51 1    
    98   50   52 1    
    99   50  116 1    
   100   51  117 1    
   101   51  118 1    
   102   51  119 1    
   103   52   53 2    
   104   52   54 am   BACKBONE|DICT|INTERRES
   105   54   55 1    
   106   54  120 1    
   107   55   56 1    
   108   55   57 1    
   109   55  121 1    
   110   56  122 1    
   111   56  123 1    
   112   56  124 1    
   113   57   58 2    
   114   57   59 am   BACKBONE|DICT|INTERRES
   115   59   60 1    
   116   59  125 1    
   117   60   61 1    
   118   60   62 1    
   119   60  126 1    
   120   61  127 1    
   121   61  128 1    
   122   61  129 1    
   123   62   63 2    
   124   62   64 am   BACKBONE|DICT|INTERRES
   125   64   65 1    
   126   64  130 1    
   127   65   66 1    
   128   65   69 1    
   129   65  131 1    
   130   66   67 am   BACKBONE|DICT|INTERRES
   131   66   68 2    
   132   67  132 1    
   133   67  133 1    
   134   69   70 1    
   135   69  134 1    
   136   69  135 1    
   137   70   71 1    
   138   71  136 1    
   139   71  137 1    
@<TRIPOS>SUBSTRUCTURE
     1 UNK         1 GROUP             0       ****    0 ROOT    
