@<TRIPOS>MOLECULE
3R136
137   139    1
SMALL
USER_CHARGES


@<TRIPOS>ATOM
      1 CA         26.4316   23.0951    3.7568 C.3       0 UNK        -0.1979 
      2 C          26.7036   22.3981    2.4321 C.2       0 UNK         0.4864 
      3 O          25.8835   21.5966    1.9827 O.2       0 UNK        -0.5359 
      4 N          27.8511   22.6928    1.8086 N.am      1 UNK        -0.4318 
      5 CA         28.2616   22.1636    0.5028 C.3       1 UNK         0.0824 
      6 C6         29.8032   22.1570    0.3038 C.3       12 UNK        -0.0944 
      7 S7         30.6991   23.5848    1.0188 S.3       12 UNK        -0.2672 
      8 C8         31.6622   22.7087    2.2928 C.3       12 UNK         0.0333 
      9 C9         32.5144   23.6513    3.1260 C.ar      12 UNK        -0.0807 
     10 C10        33.8729   23.8213    2.8405 C.ar      12 UNK        -0.0894 
     11 C11        34.6748   24.6409    3.6423 C.ar      12 UNK        -0.0804 
     12 C12        34.0898   25.3123    4.7239 C.ar      12 UNK        -0.0824 
     13 C13        32.7291   25.1687    5.0076 C.ar      12 UNK        -0.0762 
     14 C14        31.9517   24.3177    4.2161 C.ar      12 UNK        -0.0782 
     15 C15        32.1196   25.9355    6.1776 C.3       12 UNK         0.0230 
     16 S16        30.5094   26.7039    5.7958 S.3       12 UNK        -0.2608 
     17 C17        30.8626   27.6024    4.2459 C.3       12 UNK        -0.0989 
     18 CA         29.9411   27.1523    3.0866 C.3       5 UNK         0.0716 
     19 N          28.5309   27.3774    3.3950 N.am      5 UNK        -0.4135 
     20 C          27.5163   26.6987    2.8502 C.2       4 UNK         0.5031 
     21 O          27.6706   25.7729    2.0458 O.2       4 UNK        -0.5229 
     22 CA         26.0836   27.0904    3.2591 C.3       4 UNK         0.0329 
     23 CB         25.9744   28.2507    4.2743 C.3       4 UNK        -0.2001 
     24 N          25.2769   27.3299    2.0616 N.am      4 UNK        -0.4303 
     25 C          25.4423   28.3029    1.1545 C.2       3 UNK         0.5044 
     26 O          26.1779   29.2787    1.3020 O.2       3 UNK        -0.5152 
     27 CA         24.7064   28.0840   -0.1788 C.3       3 UNK         0.0319 
     28 CB         24.6100   29.3590   -1.0359 C.3       3 UNK        -0.2001 
     29 N          25.3931   27.0390   -0.9415 N.am      3 UNK        -0.4354 
     30 C          25.2782   25.7260   -0.6981 C.2       2 UNK         0.4964 
     31 O          24.4965   25.2592    0.1335 O.2       2 UNK        -0.5047 
     32 CA         26.1920   24.7653   -1.4657 C.3       2 UNK         0.0288 
     33 CB         27.0684   25.4168   -2.5556 C.3       2 UNK        -0.2113 
     34 N          27.0180   24.0562   -0.4906 N.am      2 UNK        -0.4145 
     35 C          27.5250   22.8312   -0.6771 C.2       1 UNK         0.5006 
     36 O          27.4128   22.2053   -1.7336 O.2       1 UNK        -0.5103 
     37 C          30.2538   27.8968    1.7802 C.2       5 UNK         0.5055 
     38 O          30.6305   29.0684    1.8246 O.2       5 UNK        -0.5220 
     39 N          30.0116   27.2300    0.6431 N.am      6 UNK        -0.4450 
     40 CA         30.0779   27.7425   -0.7308 C.3       6 UNK         0.0367 
     41 CB         31.5100   28.1744   -1.1125 C.3       6 UNK        -0.1929 
     42 C          29.0384   28.8487   -0.9974 C.2       6 UNK         0.5070 
     43 O          28.0670   28.6082   -1.7143 O.2       6 UNK        -0.5237 
     44 N          29.2582   30.0255   -0.4042 N.am      7 UNK        -0.4739 
     45 CA         28.3730   31.1885   -0.4414 C.3       7 UNK         0.0276 
     46 CB         28.6463   32.0048   -1.7204 C.3       7 UNK        -0.1927 
     47 C          28.4812   32.0476    0.8347 C.2       7 UNK         0.5013 
     48 O          28.0205   33.1910    0.8195 O.2       7 UNK        -0.5193 
     49 N          29.0998   31.5260    1.9040 N.am      8 UNK        -0.4253 
     50 CA         29.3695   32.2434    3.1502 C.3       8 UNK         0.0242 
     51 CB         30.6824   33.0458    3.0023 C.3       8 UNK        -0.2000 
     52 C          29.3838   31.2586    4.3327 C.2       8 UNK         0.4948 
     53 O          28.7387   30.2106    4.2648 O.2       8 UNK        -0.5275 
     54 N          30.1170   31.6122    5.3967 N.am      9 UNK        -0.4246 
     55 CA         30.3466   30.7961    6.5957 C.3       9 UNK         0.0261 
     56 CB         29.8942   31.5930    7.8333 C.3       9 UNK        -0.1959 
     57 C          31.8206   30.3521    6.7143 C.2       9 UNK         0.5033 
     58 O          32.2469   29.9339    7.7918 O.2       9 UNK        -0.5390 
     59 N          32.5737   30.4500    5.6139 N.am      10 UNK        -0.4215 
     60 CA         33.9559   30.0107    5.4500 C.3       10 UNK         0.0240 
     61 CB         34.9116   31.1705    5.7816 C.3       10 UNK        -0.1982 
     62 C          34.1165   29.5442    3.9976 C.2       10 UNK         0.4970 
     63 O          33.2410   29.8306    3.1798 O.2       10 UNK        -0.4916 
     64 N          35.2137   28.8362    3.7040 N.am      11 UNK        -0.4279 
     65 CA         35.4705   28.1691    2.4123 C.3       11 UNK         0.1003 
     66 C          35.4678   29.0832    1.1500 C.2       11 UNK         0.5709 
     67 N          35.7027   30.3841    1.2739 N.am      11 UNK        -0.7358 
     68 O          35.2601   28.5973    0.0409 O.2       11 UNK        -0.4999 
     69 C69        36.7782   27.3318    2.4340 C.3       12 UNK        -0.0954 
     70 S70        36.9849   26.2624    3.8961 S.3       12 UNK        -0.2268 
     71 C71        36.1767   24.7141    3.3628 C.3       12 UNK         0.0203 
     72 H72        26.2839   22.3582    4.5457 H         1 UNK         0.0888 
     73 H73        27.2548   23.7459    4.0514 H         1 UNK         0.0888 
     74 H74        25.5286   23.6998    3.6806 H         1 UNK         0.0888 
     75 H75        28.4676   23.3934    2.1985 H         1 UNK         0.3017 
     76 H76        27.9454   21.1182    0.4705 H         1 UNK         0.0873 
     77 H77        30.0691   22.0814   -0.7527 H         1 UNK         0.0745 
     78 H78        30.1977   21.2414    0.7468 H         1 UNK         0.0745 
     79 H79        32.2944   21.9601    1.8123 H         1 UNK         0.0705 
     80 H80        30.9809   22.1601    2.9456 H         1 UNK         0.0705 
     81 H81        34.3138   23.2876    2.0093 H         1 UNK         0.1334 
     82 H82        34.6946   25.9406    5.3621 H         1 UNK         0.1417 
     83 H83        30.9031   24.1812    4.4430 H         1 UNK         0.1562 
     84 H84        32.7958   26.7235    6.5138 H         1 UNK         0.0748 
     85 H85        31.9947   25.2544    7.0202 H         1 UNK         0.0748 
     86 H86        31.9075   27.4699    3.9636 H         1 UNK         0.0940 
     87 H87        30.7508   28.6660    4.4394 H         1 UNK         0.0940 
     88 H88        30.1087   26.0866    2.9198 H         1 UNK         0.0703 
     89 H89        28.3368   28.2024    3.9538 H         1 UNK         0.3081 
     90 H90        25.6612   26.2058    3.7365 H         1 UNK         0.0719 
     91 H91        26.3627   29.1888    3.8791 H         1 UNK         0.0809 
     92 H92        24.9360   28.4224    4.5573 H         1 UNK         0.0809 
     93 H93        26.5211   28.0278    5.1916 H         1 UNK         0.0809 
     94 H94        24.7142   26.5403    1.7623 H         1 UNK         0.2990 
     95 H95        23.6875   27.7626    0.0488 H         1 UNK         0.0690 
     96 H96        23.9764   29.1983   -1.9081 H         1 UNK         0.0788 
     97 H97        25.5863   29.6836   -1.3934 H         1 UNK         0.0788 
     98 H98        24.1767   30.1824   -0.4668 H         1 UNK         0.0788 
     99 H99        26.1209   27.3562   -1.5712 H         1 UNK         0.2993 
    100 H100       25.5250   24.0492   -1.9511 H         1 UNK         0.0949 
    101 H101       27.8226   26.0706   -2.1251 H         1 UNK         0.0767 
    102 H102       27.5908   24.6606   -3.1418 H         1 UNK         0.0767 
    103 H103       26.4708   26.0017   -3.2561 H         1 UNK         0.0767 
    104 H104       27.1228   24.5025    0.4161 H         1 UNK         0.3013 
    105 H105       29.6261   26.2982    0.7355 H         1 UNK         0.3121 
    106 H106       29.8210   26.9019   -1.3754 H         1 UNK         0.0774 
    107 H107       31.5495   28.5106   -2.1492 H         1 UNK         0.0815 
    108 H108       31.8834   28.9908   -0.4940 H         1 UNK         0.0815 
    109 H109       32.2092   27.3438   -1.0152 H         1 UNK         0.0815 
    110 H110       30.0541   30.0775    0.2244 H         1 UNK         0.2987 
    111 H111       27.3407   30.8400   -0.4725 H         1 UNK         0.0949 
    112 H112       27.9664   32.8537   -1.8011 H         1 UNK         0.0806 
    113 H113       29.6640   32.3960   -1.7341 H         1 UNK         0.0806 
    114 H114       28.5069   31.3990   -2.6158 H         1 UNK         0.0806 
    115 H115       29.4074   30.5564    1.8989 H         1 UNK         0.3010 
    116 H116       28.5509   32.9394    3.3447 H         1 UNK         0.0829 
    117 H117       30.6502   33.6963    2.1279 H         1 UNK         0.0813 
    118 H118       30.8634   33.6932    3.8606 H         1 UNK         0.0813 
    119 H119       31.5446   32.3865    2.8879 H         1 UNK         0.0813 
    120 H120       30.6039   32.4975    5.3668 H         1 UNK         0.3038 
    121 H121       29.7520   29.8813    6.5483 H         1 UNK         0.0769 
    122 H122       28.8484   31.8896    7.7513 H         1 UNK         0.0811 
    123 H123       30.4899   32.4959    7.9719 H         1 UNK         0.0811 
    124 H124       29.9877   30.9964    8.7417 H         1 UNK         0.0811 
    125 H125       32.1344   30.7092    4.7383 H         1 UNK         0.3204 
    126 H126       34.1534   29.1619    6.1084 H         1 UNK         0.0748 
    127 H127       34.7516   32.0249    5.1225 H         1 UNK         0.0771 
    128 H128       34.7758   31.5116    6.8082 H         1 UNK         0.0771 
    129 H129       35.9538   30.8664    5.6786 H         1 UNK         0.0771 
    130 H130       35.8975   28.6596    4.4249 H         1 UNK         0.2980 
    131 H131       34.6429   27.4705    2.2733 H         1 UNK         0.0545 
    132 H132       35.6977   30.9669    0.4523 H         1 UNK         0.3459 
    133 H133       35.8616   30.7893    2.1817 H         1 UNK         0.3459 
    134 H134       37.6433   27.9973    2.4104 H         1 UNK         0.0616 
    135 H135       36.8532   26.7173    1.5350 H         1 UNK         0.0616 
    136 H136       36.6527   23.8892    3.8942 H         1 UNK         0.0634 
    137 H137       36.3773   24.5482    2.3034 H         1 UNK         0.0634 
@<TRIPOS>BOND
     1    1    2 1    
     2    1   72 1    
     3    1   73 1    
     4    1   74 1    
     5    2    3 2    
     6    2    4 am   BACKBONE|DICT|INTERRES
     7    4    5 1    
     8    4   75 1    
     9    5    6 1    
    10    5   35 1    
    11    5   76 1    
    12    6    7 1    
    13    6   77 1    
    14    6   78 1    
    15    7    8 1    
    16    8    9 1    
    17    8   79 1    
    18    8   80 1    
    19    9   10 ar   
    20    9   14 ar   
    21   10   11 ar   
    22   10   81 1    
    23   11   12 ar   
    24   11   71 1    
    25   12   13 ar   
    26   12   82 1    
    27   13   14 ar   
    28   13   15 1    
    29   14   83 1    
    30   15   16 1    
    31   15   84 1    
    32   15   85 1    
    33   16   17 1    
    34   17   18 1    
    35   17   86 1    
    36   17   87 1    
    37   18   19 1    
    38   18   37 1    
    39   18   88 1    
    40   19   20 am   BACKBONE|DICT|INTERRES
    41   19   89 1    
    42   20   21 2    
    43   20   22 1    
    44   22   23 1    
    45   22   24 1    
    46   22   90 1    
    47   23   91 1    
    48   23   92 1    
    49   23   93 1    
    50   24   25 am   BACKBONE|DICT|INTERRES
    51   24   94 1    
    52   25   26 2    
    53   25   27 1    
    54   27   28 1    
    55   27   29 1    
    56   27   95 1    
    57   28   96 1    
    58   28   97 1    
    59   28   98 1    
    60   29   30 am   BACKBONE|DICT|INTERRES
    61   29   99 1    
    62   30   31 2    
    63   30   32 1    
    64   32   33 1    
    65   32   34 1    
    66   32  100 1    
    67   33  101 1    
    68   33  102 1    
    69   33  103 1    
    70   34   35 am   BACKBONE|DICT|INTERRES
    71   34  104 1    
    72   35   36 2    
    73   37   38 2    
    74   37   39 am   BACKBONE|DICT|INTERRES
    75   39   40 1    
    76   39  105 1    
    77   40   41 1    
    78   40   42 1    
    79   40  106 1    
    80   41  107 1    
    81   41  108 1    
    82   41  109 1    
    83   42   43 2    
    84   42   44 am   BACKBONE|DICT|INTERRES
    85   44   45 1    
    86   44  110 1    
    87   45   46 1    
    88   45   47 1    
    89   45  111 1    
    90   46  112 1    
    91   46  113 1    
    92   46  114 1    
    93   47   48 2    
    94   47   49 am   BACKBONE|DICT|INTERRES
    95   49   50 1    
    96   49  115 1    
    97   50   51 1    
    98   50   52 1    
    99   50  116 1    
   100   51  117 1    
   101   51  118 1    
   102   51  119 1    
   103   52   53 2    
   104   52   54 am   BACKBONE|DICT|INTERRES
   105   54   55 1    
   106   54  120 1    
   107   55   56 1    
   108   55   57 1    
   109   55  121 1    
   110   56  122 1    
   111   56  123 1    
   112   56  124 1    
   113   57   58 2    
   114   57   59 am   BACKBONE|DICT|INTERRES
   115   59   60 1    
   116   59  125 1    
   117   60   61 1    
   118   60   62 1    
   119   60  126 1    
   120   61  127 1    
   121   61  128 1    
   122   61  129 1    
   123   62   63 2    
   124   62   64 am   BACKBONE|DICT|INTERRES
   125   64   65 1    
   126   64  130 1    
   127   65   66 1    
   128   65   69 1    
   129   65  131 1    
   130   66   67 am   BACKBONE|DICT|INTERRES
   131   66   68 2    
   132   67  132 1    
   133   67  133 1    
   134   69   70 1    
   135   69  134 1    
   136   69  135 1    
   137   70   71 1    
   138   71  136 1    
   139   71  137 1    
@<TRIPOS>SUBSTRUCTURE
     1 UNK         1 GROUP             0       ****    0 ROOT    
