@<TRIPOS>MOLECULE
3R136
137   139    1
SMALL
USER_CHARGES


@<TRIPOS>ATOM
      1 CA         27.9767   20.5830   -2.7866 C.3       0 UNK        -0.1979 
      2 C          28.7844   20.5428   -1.4973 C.2       0 UNK         0.4864 
      3 O          28.7540   19.5309   -0.7964 O.2       0 UNK        -0.5359 
      4 N          29.4992   21.6358   -1.1954 N.am      1 UNK        -0.4318 
      5 CA         30.3338   21.8540   -0.0069 C.3       1 UNK         0.0824 
      6 C6         31.6070   20.9604    0.0459 C.3       12 UNK        -0.0944 
      7 S7         32.8186   21.4340   -1.2393 S.3       12 UNK        -0.2672 
      8 C8         33.9292   22.5677   -0.3288 C.3       12 UNK         0.0333 
      9 C9         33.1505   23.6948    0.3348 C.ar      12 UNK        -0.0807 
     10 C10        32.9207   23.6720    1.7146 C.ar      12 UNK        -0.0894 
     11 C11        32.0735   24.6113    2.3098 C.ar      12 UNK        -0.0804 
     12 C12        31.4752   25.5923    1.5151 C.ar      12 UNK        -0.0824 
     13 C13        31.7208   25.6424    0.1403 C.ar      12 UNK        -0.0762 
     14 C14        32.5752   24.7038   -0.4444 C.ar      12 UNK        -0.0782 
     15 C15        31.0130   26.6799   -0.7118 C.3       12 UNK         0.0230 
     16 S16        29.2630   26.2345   -0.9309 S.3       12 UNK        -0.2608 
     17 C17        28.5735   27.7840   -1.6050 C.3       12 UNK        -0.0989 
     18 CA         27.6113   28.5661   -0.6644 C.3       5 UNK         0.0716 
     19 N          26.6388   27.7104    0.0242 N.am      5 UNK        -0.4135 
     20 C          25.3770   28.0690    0.3042 C.2       4 UNK         0.5031 
     21 O          24.8776   29.1342   -0.0625 O.2       4 UNK        -0.5229 
     22 CA         24.5418   27.1145    1.1762 C.3       4 UNK         0.0329 
     23 CB         23.9311   25.9939    0.3195 C.3       4 UNK        -0.2001 
     24 N          25.2956   26.5243    2.2842 N.am      4 UNK        -0.4303 
     25 C          25.8971   27.2019    3.2743 C.2       3 UNK         0.5044 
     26 O          25.8228   28.4238    3.4046 O.2       3 UNK        -0.5152 
     27 CA         26.7198   26.3898    4.2990 C.3       3 UNK         0.0319 
     28 CB         26.0379   26.4122    5.6768 C.3       3 UNK        -0.2001 
     29 N          26.9879   24.9928    3.9265 N.am      3 UNK        -0.4354 
     30 C          27.6944   24.6028    2.8578 C.2       2 UNK         0.4964 
     31 O          28.1825   25.3898    2.0462 O.2       2 UNK        -0.5047 
     32 CA         27.8327   23.0908    2.6354 C.3       2 UNK         0.0288 
     33 CB         26.4652   22.4272    2.3798 C.3       2 UNK        -0.2113 
     34 N          28.6977   22.8694    1.4818 N.am      2 UNK        -0.4145 
     35 C          29.5025   21.8186    1.2910 C.2       1 UNK         0.5006 
     36 O          29.5920   20.8690    2.0730 O.2       1 UNK        -0.5103 
     37 C          28.3003   29.4910    0.3614 C.2       5 UNK         0.5055 
     38 O          29.5085   29.4081    0.5822 O.2       5 UNK        -0.5220 
     39 N          27.4996   30.3824    0.9641 N.am      6 UNK        -0.4450 
     40 CA         27.8710   31.3240    2.0289 C.3       6 UNK         0.0367 
     41 CB         26.5994   32.0312    2.5262 C.3       6 UNK        -0.1929 
     42 C          28.9605   32.3538    1.6633 C.2       6 UNK         0.5070 
     43 O          29.4414   33.0575    2.5517 O.2       6 UNK        -0.5237 
     44 N          29.3515   32.4179    0.3819 N.am      7 UNK        -0.4739 
     45 CA         30.5289   33.1389   -0.1090 C.3       7 UNK         0.0276 
     46 CB         30.5475   33.0906   -1.6450 C.3       7 UNK        -0.1927 
     47 C          31.8525   32.5954    0.4656 C.2       7 UNK         0.5013 
     48 O          32.8107   33.3605    0.5849 O.2       7 UNK        -0.5193 
     49 N          31.8806   31.3071    0.8429 N.am      8 UNK        -0.4253 
     50 CA         32.9341   30.7194    1.6672 C.3       8 UNK         0.0242 
     51 CB         32.9153   29.1885    1.5124 C.3       8 UNK        -0.2000 
     52 C          32.6952   31.1424    3.1235 C.2       8 UNK         0.4948 
     53 O          31.8573   30.5423    3.7978 O.2       8 UNK        -0.5275 
     54 N          33.4063   32.1847    3.5746 N.am      9 UNK        -0.4246 
     55 CA         33.2130   32.8512    4.8707 C.3       9 UNK         0.0261 
     56 CB         34.1756   34.0458    4.9713 C.3       9 UNK        -0.1959 
     57 C          33.3518   31.9447    6.1092 C.2       9 UNK         0.5033 
     58 O          32.7531   32.2449    7.1429 O.2       9 UNK        -0.5390 
     59 N          34.1187   30.8534    5.9850 N.am      10 UNK        -0.4215 
     60 CA         34.2577   29.8136    7.0069 C.3       10 UNK         0.0240 
     61 CB         35.5020   28.9668    6.6913 C.3       10 UNK        -0.1982 
     62 C          33.0164   28.9085    7.1366 C.2       10 UNK         0.4970 
     63 O          32.8416   28.2945    8.1902 O.2       10 UNK        -0.4916 
     64 N          32.2011   28.8239    6.0782 N.am      11 UNK        -0.4279 
     65 CA         31.0028   27.9780    5.9907 C.3       11 UNK         0.1003 
     66 C          29.6967   28.8115    6.0572 C.2       11 UNK         0.5709 
     67 N          29.6484   30.0029    5.4747 N.am      11 UNK        -0.7358 
     68 O          28.7203   28.3771    6.6620 O.2       11 UNK        -0.4999 
     69 C69        31.0319   27.1017    4.7125 C.3       12 UNK        -0.0954 
     70 S70        32.4329   25.9298    4.7277 S.3       12 UNK        -0.2268 
     71 C71        31.7572   24.5208    3.7961 C.3       12 UNK         0.0203 
     72 H72        26.9180   20.4424   -2.5704 H         1 UNK         0.0888 
     73 H73        28.2974   19.7842   -3.4548 H         1 UNK         0.0888 
     74 H74        28.0919   21.5307   -3.3126 H         1 UNK         0.0888 
     75 H75        29.4646   22.4204   -1.8312 H         1 UNK         0.3017 
     76 H76        30.6580   22.8877   -0.0923 H         1 UNK         0.0873 
     77 H77        31.3484   19.9086   -0.0830 H         1 UNK         0.0745 
     78 H78        32.0952   21.0251    1.0196 H         1 UNK         0.0745 
     79 H79        34.6608   22.9859   -1.0215 H         1 UNK         0.0705 
     80 H80        34.4949   21.9986    0.4106 H         1 UNK         0.0705 
     81 H81        33.3587   22.8881    2.3173 H         1 UNK         0.1334 
     82 H82        30.7888   26.3014    1.9572 H         1 UNK         0.1417 
     83 H83        32.7387   24.7136   -1.5136 H         1 UNK         0.1562 
     84 H84        31.4879   26.7751   -1.6893 H         1 UNK         0.0748 
     85 H85        31.0965   27.6526   -0.2320 H         1 UNK         0.0748 
     86 H86        28.0232   27.5055   -2.5049 H         1 UNK         0.0940 
     87 H87        29.3796   28.4296   -1.9591 H         1 UNK         0.0940 
     88 H88        27.0635   29.2412   -1.3260 H         1 UNK         0.0703 
     89 H89        27.0105   26.8525    0.4129 H         1 UNK         0.3081 
     90 H90        23.7259   27.6961    1.6103 H         1 UNK         0.0719 
     91 H91        23.3478   26.4073   -0.5046 H         1 UNK         0.0809 
     92 H92        23.2591   25.3668    0.9058 H         1 UNK         0.0809 
     93 H93        24.6981   25.3510   -0.1146 H         1 UNK         0.0809 
     94 H94        25.4097   25.5222    2.2711 H         1 UNK         0.2990 
     95 H95        27.6834   26.8945    4.3896 H         1 UNK         0.0690 
     96 H96        25.0730   25.9040    5.6594 H         1 UNK         0.0788 
     97 H97        25.8627   27.4367    6.0087 H         1 UNK         0.0788 
     98 H98        26.6597   25.9357    6.4349 H         1 UNK         0.0788 
     99 H99        26.6034   24.2866    4.5381 H         1 UNK         0.2993 
    100 H100       28.2948   22.6614    3.5271 H         1 UNK         0.0949 
    101 H101       25.7990   22.5376    3.2360 H         1 UNK         0.0767 
    102 H102       25.9635   22.8603    1.5132 H         1 UNK         0.0767 
    103 H103       26.5746   21.3577    2.1981 H         1 UNK         0.0767 
    104 H104       28.7407   23.6589    0.8475 H         1 UNK         0.3013 
    105 H105       26.5163   30.3532    0.7192 H         1 UNK         0.3121 
    106 H106       28.2728   30.7288    2.8516 H         1 UNK         0.0774 
    107 H107       26.8231   32.7071    3.3528 H         1 UNK         0.0815 
    108 H108       26.1329   32.6226    1.7375 H         1 UNK         0.0815 
    109 H109       25.8641   31.3129    2.8902 H         1 UNK         0.0815 
    110 H110       28.8898   31.8069   -0.2751 H         1 UNK         0.2987 
    111 H111       30.4393   34.1809    0.2058 H         1 UNK         0.0949 
    112 H112       30.6190   32.0675   -2.0165 H         1 UNK         0.0806 
    113 H113       29.6495   33.5413   -2.0681 H         1 UNK         0.0806 
    114 H114       31.4017   33.6416   -2.0415 H         1 UNK         0.0806 
    115 H115       31.0358   30.7519    0.7388 H         1 UNK         0.3010 
    116 H116       33.9093   31.0842    1.3374 H         1 UNK         0.0829 
    117 H117       31.9450   28.7672    1.7774 H         1 UNK         0.0813 
    118 H118       33.6592   28.7186    2.1569 H         1 UNK         0.0813 
    119 H119       33.1394   28.8922    0.4878 H         1 UNK         0.0813 
    120 H120       34.0439   32.6355    2.9327 H         1 UNK         0.3038 
    121 H121       32.1912   33.2371    4.8770 H         1 UNK         0.0769 
    122 H122       35.2183   33.7287    4.9282 H         1 UNK         0.0811 
    123 H123       34.0367   34.5821    5.9113 H         1 UNK         0.0811 
    124 H124       34.0070   34.7613    4.1662 H         1 UNK         0.0811 
    125 H125       34.5835   30.6961    5.1028 H         1 UNK         0.3204 
    126 H126       34.4115   30.2997    7.9729 H         1 UNK         0.0748 
    127 H127       36.4032   29.5796    6.6601 H         1 UNK         0.0771 
    128 H128       35.6580   28.2033    7.4549 H         1 UNK         0.0771 
    129 H129       35.4088   28.4533    5.7331 H         1 UNK         0.0771 
    130 H130       32.3633   29.4176    5.2717 H         1 UNK         0.2980 
    131 H131       30.9727   27.2991    6.8452 H         1 UNK         0.0545 
    132 H132       30.4321   30.3292    4.9137 H         1 UNK         0.3459 
    133 H133       28.8054   30.5488    5.5358 H         1 UNK         0.3459 
    134 H134       30.1016   26.5392    4.6207 H         1 UNK         0.0616 
    135 H135       31.1052   27.7267    3.8212 H         1 UNK         0.0616 
    136 H136       30.6791   24.4435    3.9395 H         1 UNK         0.0634 
    137 H137       32.1794   23.6070    4.2168 H         1 UNK         0.0634 
@<TRIPOS>BOND
     1    1    2 1    
     2    1   72 1    
     3    1   73 1    
     4    1   74 1    
     5    2    3 2    
     6    2    4 am   BACKBONE|DICT|INTERRES
     7    4    5 1    
     8    4   75 1    
     9    5    6 1    
    10    5   35 1    
    11    5   76 1    
    12    6    7 1    
    13    6   77 1    
    14    6   78 1    
    15    7    8 1    
    16    8    9 1    
    17    8   79 1    
    18    8   80 1    
    19    9   10 ar   
    20    9   14 ar   
    21   10   11 ar   
    22   10   81 1    
    23   11   12 ar   
    24   11   71 1    
    25   12   13 ar   
    26   12   82 1    
    27   13   14 ar   
    28   13   15 1    
    29   14   83 1    
    30   15   16 1    
    31   15   84 1    
    32   15   85 1    
    33   16   17 1    
    34   17   18 1    
    35   17   86 1    
    36   17   87 1    
    37   18   19 1    
    38   18   37 1    
    39   18   88 1    
    40   19   20 am   BACKBONE|DICT|INTERRES
    41   19   89 1    
    42   20   21 2    
    43   20   22 1    
    44   22   23 1    
    45   22   24 1    
    46   22   90 1    
    47   23   91 1    
    48   23   92 1    
    49   23   93 1    
    50   24   25 am   BACKBONE|DICT|INTERRES
    51   24   94 1    
    52   25   26 2    
    53   25   27 1    
    54   27   28 1    
    55   27   29 1    
    56   27   95 1    
    57   28   96 1    
    58   28   97 1    
    59   28   98 1    
    60   29   30 am   BACKBONE|DICT|INTERRES
    61   29   99 1    
    62   30   31 2    
    63   30   32 1    
    64   32   33 1    
    65   32   34 1    
    66   32  100 1    
    67   33  101 1    
    68   33  102 1    
    69   33  103 1    
    70   34   35 am   BACKBONE|DICT|INTERRES
    71   34  104 1    
    72   35   36 2    
    73   37   38 2    
    74   37   39 am   BACKBONE|DICT|INTERRES
    75   39   40 1    
    76   39  105 1    
    77   40   41 1    
    78   40   42 1    
    79   40  106 1    
    80   41  107 1    
    81   41  108 1    
    82   41  109 1    
    83   42   43 2    
    84   42   44 am   BACKBONE|DICT|INTERRES
    85   44   45 1    
    86   44  110 1    
    87   45   46 1    
    88   45   47 1    
    89   45  111 1    
    90   46  112 1    
    91   46  113 1    
    92   46  114 1    
    93   47   48 2    
    94   47   49 am   BACKBONE|DICT|INTERRES
    95   49   50 1    
    96   49  115 1    
    97   50   51 1    
    98   50   52 1    
    99   50  116 1    
   100   51  117 1    
   101   51  118 1    
   102   51  119 1    
   103   52   53 2    
   104   52   54 am   BACKBONE|DICT|INTERRES
   105   54   55 1    
   106   54  120 1    
   107   55   56 1    
   108   55   57 1    
   109   55  121 1    
   110   56  122 1    
   111   56  123 1    
   112   56  124 1    
   113   57   58 2    
   114   57   59 am   BACKBONE|DICT|INTERRES
   115   59   60 1    
   116   59  125 1    
   117   60   61 1    
   118   60   62 1    
   119   60  126 1    
   120   61  127 1    
   121   61  128 1    
   122   61  129 1    
   123   62   63 2    
   124   62   64 am   BACKBONE|DICT|INTERRES
   125   64   65 1    
   126   64  130 1    
   127   65   66 1    
   128   65   69 1    
   129   65  131 1    
   130   66   67 am   BACKBONE|DICT|INTERRES
   131   66   68 2    
   132   67  132 1    
   133   67  133 1    
   134   69   70 1    
   135   69  134 1    
   136   69  135 1    
   137   70   71 1    
   138   71  136 1    
   139   71  137 1    
@<TRIPOS>SUBSTRUCTURE
     1 UNK         1 GROUP             0       ****    0 ROOT    
