@<TRIPOS>MOLECULE
3R136
137   139    1
SMALL
USER_CHARGES


@<TRIPOS>ATOM
      1 CA         33.6934   24.0177   -3.7829 C.3       0 UNK        -0.1979 
      2 C          32.4807   24.4321   -2.9635 C.2       0 UNK         0.4864 
      3 O          31.5094   24.9466   -3.5214 O.2       0 UNK        -0.5359 
      4 N          32.5192   24.2071   -1.6430 N.am      1 UNK        -0.4318 
      5 CA         31.4469   24.5336   -0.6980 C.3       1 UNK         0.0824 
      6 C6         32.0068   24.7463    0.7321 C.3       12 UNK        -0.0944 
      7 S7         30.9000   25.7442    1.7867 S.3       12 UNK        -0.2672 
      8 C8         30.4624   24.5417    3.0797 C.3       12 UNK         0.0333 
      9 C9         29.7694   25.2287    4.2444 C.ar      12 UNK        -0.0807 
     10 C10        30.5163   25.9991    5.1372 C.ar      12 UNK        -0.0894 
     11 C11        29.8987   26.6636    6.2017 C.ar      12 UNK        -0.0804 
     12 C12        28.5184   26.5301    6.3822 C.ar      12 UNK        -0.0824 
     13 C13        27.7620   25.7405    5.5093 C.ar      12 UNK        -0.0762 
     14 C14        28.3930   25.0946    4.4404 C.ar      12 UNK        -0.0782 
     15 C15        26.2668   25.5631    5.7323 C.3       12 UNK         0.0230 
     16 S16        25.2868   26.1776    4.3285 S.3       12 UNK        -0.2608 
     17 C17        25.4859   27.9863    4.4838 C.3       12 UNK        -0.0989 
     18 CA         26.6519   28.5728    3.6436 C.3       5 UNK         0.0716 
     19 N          26.6766   28.0518    2.2729 N.am      5 UNK        -0.4135 
     20 C          27.6348   28.2664    1.3627 C.2       4 UNK         0.5031 
     21 O          28.5750   29.0469    1.5290 O.2       4 UNK        -0.5229 
     22 CA         27.5168   27.4624    0.0529 C.3       4 UNK         0.0329 
     23 CB         28.7249   27.6597   -0.8809 C.3       4 UNK        -0.2001 
     24 N          27.3534   26.0293    0.3107 N.am      4 UNK        -0.4303 
     25 C          26.1971   25.4174    0.6034 C.2       3 UNK         0.5044 
     26 O          25.1324   26.0230    0.7386 O.2       3 UNK        -0.5152 
     27 CA         26.2533   23.8865    0.7897 C.3       3 UNK         0.0319 
     28 CB         24.8644   23.2187    0.7102 C.3       3 UNK        -0.2001 
     29 N          27.2064   23.2385   -0.1219 N.am      3 UNK        -0.4354 
     30 C          27.1846   23.2423   -1.4640 C.2       2 UNK         0.4964 
     31 O          26.2847   23.7431   -2.1403 O.2       2 UNK        -0.5047 
     32 CA         28.4197   22.6326   -2.1555 C.3       2 UNK         0.0288 
     33 CB         28.2337   22.4720   -3.6760 C.3       2 UNK        -0.2113 
     34 N          29.6061   23.4563   -1.9107 N.am      2 UNK        -0.4145 
     35 C          30.3071   23.4934   -0.7706 C.2       1 UNK         0.5006 
     36 O          30.0685   22.7535    0.1865 O.2       1 UNK        -0.5103 
     37 C          26.6140   30.1125    3.6982 C.2       5 UNK         0.5055 
     38 O          27.2692   30.7074    4.5540 O.2       5 UNK        -0.5220 
     39 N          25.8475   30.7243    2.7827 N.am      6 UNK        -0.4450 
     40 CA         25.6998   32.1767    2.6600 C.3       6 UNK         0.0367 
     41 CB         24.4645   32.4934    1.8015 C.3       6 UNK        -0.1929 
     42 C          26.9485   32.8602    2.0781 C.2       6 UNK         0.5070 
     43 O          27.2293   34.0047    2.4349 O.2       6 UNK        -0.5237 
     44 N          27.6717   32.1554    1.1967 N.am      7 UNK        -0.4739 
     45 CA         28.9334   32.6189    0.6149 C.3       7 UNK         0.0276 
     46 CB         29.1909   31.8789   -0.7070 C.3       7 UNK        -0.1927 
     47 C          30.1181   32.4210    1.5733 C.2       7 UNK         0.5013 
     48 O          31.0572   33.2163    1.5307 O.2       7 UNK        -0.5193 
     49 N          30.0469   31.3656    2.4009 N.am      8 UNK        -0.4253 
     50 CA         31.0659   30.8936    3.3427 C.3       8 UNK         0.0242 
     51 CB         31.3027   31.9217    4.4700 C.3       8 UNK        -0.2000 
     52 C          32.3524   30.4819    2.6056 C.2       8 UNK         0.4948 
     53 O          33.4353   30.9853    2.9086 O.2       8 UNK        -0.5275 
     54 N          32.1939   29.5928    1.6135 N.am      9 UNK        -0.4246 
     55 CA         33.2620   29.1525    0.7077 C.3       9 UNK         0.0261 
     56 CB         32.6357   28.4541   -0.5104 C.3       9 UNK        -0.1959 
     57 C          34.3363   28.2612    1.3632 C.2       9 UNK         0.5033 
     58 O          35.4133   28.1079    0.7842 O.2       9 UNK        -0.5390 
     59 N          34.0379   27.6988    2.5397 N.am      10 UNK        -0.4215 
     60 CA         34.9604   26.9315    3.3722 C.3       10 UNK         0.0240 
     61 CB         34.5717   25.4381    3.3351 C.3       10 UNK        -0.1982 
     62 C          34.9575   27.5595    4.7738 C.2       10 UNK         0.4970 
     63 O          35.4969   28.6541    4.9363 O.2       10 UNK        -0.4916 
     64 N          34.3490   26.8699    5.7471 N.am      11 UNK        -0.4279 
     65 CA         34.1706   27.2979    7.1479 C.3       11 UNK         0.1003 
     66 C          35.4769   27.3212    7.9992 C.2       11 UNK         0.5709 
     67 N          36.5730   26.7228    7.5476 N.am      11 UNK        -0.7358 
     68 O          35.4922   27.8588    9.1043 O.2       11 UNK        -0.4999 
     69 C69        33.3316   28.6050    7.3126 C.3       12 UNK        -0.0954 
     70 S70        31.8138   28.6704    6.3013 S.3       12 UNK        -0.2268 
     71 C71        30.7282   27.4951    7.1725 C.3       12 UNK         0.0203 
     72 H72        33.4053   23.2814   -4.5328 H         1 UNK         0.0888 
     73 H73        34.1111   24.8829   -4.2970 H         1 UNK         0.0888 
     74 H74        34.4759   23.5818   -3.1619 H         1 UNK         0.0888 
     75 H75        33.3276   23.7497   -1.2453 H         1 UNK         0.3017 
     76 H76        31.0172   25.4849   -1.0187 H         1 UNK         0.0873 
     77 H77        32.2561   23.7980    1.2120 H         1 UNK         0.0745 
     78 H78        32.9453   25.2995    0.6754 H         1 UNK         0.0745 
     79 H79        29.8260   23.7650    2.6540 H         1 UNK         0.0705 
     80 H80        31.3624   24.0426    3.4411 H         1 UNK         0.0705 
     81 H81        31.5823   26.0949    4.9911 H         1 UNK         0.1334 
     82 H82        28.0350   27.0303    7.2103 H         1 UNK         0.1417 
     83 H83        27.8080   24.4889    3.7632 H         1 UNK         0.1562 
     84 H84        25.9396   26.0575    6.6482 H         1 UNK         0.0748 
     85 H85        26.0561   24.5013    5.8671 H         1 UNK         0.0748 
     86 H86        25.6117   28.2446    5.5372 H         1 UNK         0.0940 
     87 H87        24.5359   28.4317    4.1810 H         1 UNK         0.0940 
     88 H88        27.5914   28.2629    4.1060 H         1 UNK         0.0703 
     89 H89        25.9494   27.3841    2.0377 H         1 UNK         0.3081 
     90 H90        26.6318   27.8281   -0.4721 H         1 UNK         0.0719 
     91 H91        29.6637   27.4268   -0.3802 H         1 UNK         0.0809 
     92 H92        28.6511   27.0321   -1.7693 H         1 UNK         0.0809 
     93 H93        28.7862   28.6913   -1.2247 H         1 UNK         0.0809 
     94 H94        28.1928   25.4710    0.2796 H         1 UNK         0.2990 
     95 H95        26.6360   23.7207    1.7971 H         1 UNK         0.0690 
     96 H96        24.9330   22.1410    0.8574 H         1 UNK         0.0788 
     97 H97        24.3824   23.3970   -0.2515 H         1 UNK         0.0788 
     98 H98        24.2002   23.6086    1.4828 H         1 UNK         0.0788 
     99 H99        28.0303   22.8353    0.3147 H         1 UNK         0.2993 
    100 H100       28.5801   21.6388   -1.7310 H         1 UNK         0.0949 
    101 H101       29.0974   21.9863   -4.1308 H         1 UNK         0.0767 
    102 H102       27.3612   21.8568   -3.9001 H         1 UNK         0.0767 
    103 H103       28.0924   23.4340   -4.1709 H         1 UNK         0.0767 
    104 H104       29.9047   24.0715   -2.6620 H         1 UNK         0.3013 
    105 H105       25.3364   30.1538    2.1245 H         1 UNK         0.3121 
    106 H106       25.5347   32.5885    3.6582 H         1 UNK         0.0774 
    107 H107       24.5604   32.0967    0.7900 H         1 UNK         0.0815 
    108 H108       24.3167   33.5709    1.7154 H         1 UNK         0.0815 
    109 H109       23.5575   32.0788    2.2419 H         1 UNK         0.0815 
    110 H110       27.3858   31.2121    0.9779 H         1 UNK         0.2987 
    111 H111       28.8519   33.6866    0.3976 H         1 UNK         0.0949 
    112 H112       29.3438   30.8125   -0.5452 H         1 UNK         0.0806 
    113 H113       28.3614   32.0019   -1.4035 H         1 UNK         0.0806 
    114 H114       30.0866   32.2624   -1.1975 H         1 UNK         0.0806 
    115 H115       29.2604   30.7351    2.2747 H         1 UNK         0.3010 
    116 H116       30.6633   29.9882    3.7998 H         1 UNK         0.0829 
    117 H117       31.7186   32.8559    4.0923 H         1 UNK         0.0813 
    118 H118       30.3745   32.1525    4.9927 H         1 UNK         0.0813 
    119 H119       32.0038   31.5330    5.2092 H         1 UNK         0.0813 
    120 H120       31.2645   29.2358    1.4323 H         1 UNK         0.3038 
    121 H121       33.7752   30.0475    0.3493 H         1 UNK         0.0769 
    122 H122       33.4015   28.1529   -1.2265 H         1 UNK         0.0811 
    123 H123       32.0923   27.5567   -0.2224 H         1 UNK         0.0811 
    124 H124       31.9434   29.1126   -1.0356 H         1 UNK         0.0811 
    125 H125       33.1405   27.9155    2.9496 H         1 UNK         0.3204 
    126 H126       35.9823   27.0241    2.9984 H         1 UNK         0.0748 
    127 H127       35.2011   24.8457    4.0007 H         1 UNK         0.0771 
    128 H128       33.5313   25.2736    3.6151 H         1 UNK         0.0771 
    129 H129       34.7073   25.0315    2.3332 H         1 UNK         0.0771 
    130 H130       33.9731   25.9612    5.5227 H         1 UNK         0.2980 
    131 H131       33.5905   26.4938    7.5995 H         1 UNK         0.0545 
    132 H132       37.4081   26.7339    8.1117 H         1 UNK         0.3459 
    133 H133       36.5757   26.2675    6.6496 H         1 UNK         0.3459 
    134 H134       33.0474   28.7473    8.3567 H         1 UNK         0.0616 
    135 H135       33.9359   29.4735    7.0457 H         1 UNK         0.0616 
    136 H136       30.0881   28.0574    7.8538 H         1 UNK         0.0634 
    137 H137       31.3151   26.8159    7.7900 H         1 UNK         0.0634 
@<TRIPOS>BOND
     1    1    2 1    
     2    1   72 1    
     3    1   73 1    
     4    1   74 1    
     5    2    3 2    
     6    2    4 am   BACKBONE|DICT|INTERRES
     7    4    5 1    
     8    4   75 1    
     9    5    6 1    
    10    5   35 1    
    11    5   76 1    
    12    6    7 1    
    13    6   77 1    
    14    6   78 1    
    15    7    8 1    
    16    8    9 1    
    17    8   79 1    
    18    8   80 1    
    19    9   10 ar   
    20    9   14 ar   
    21   10   11 ar   
    22   10   81 1    
    23   11   12 ar   
    24   11   71 1    
    25   12   13 ar   
    26   12   82 1    
    27   13   14 ar   
    28   13   15 1    
    29   14   83 1    
    30   15   16 1    
    31   15   84 1    
    32   15   85 1    
    33   16   17 1    
    34   17   18 1    
    35   17   86 1    
    36   17   87 1    
    37   18   19 1    
    38   18   37 1    
    39   18   88 1    
    40   19   20 am   BACKBONE|DICT|INTERRES
    41   19   89 1    
    42   20   21 2    
    43   20   22 1    
    44   22   23 1    
    45   22   24 1    
    46   22   90 1    
    47   23   91 1    
    48   23   92 1    
    49   23   93 1    
    50   24   25 am   BACKBONE|DICT|INTERRES
    51   24   94 1    
    52   25   26 2    
    53   25   27 1    
    54   27   28 1    
    55   27   29 1    
    56   27   95 1    
    57   28   96 1    
    58   28   97 1    
    59   28   98 1    
    60   29   30 am   BACKBONE|DICT|INTERRES
    61   29   99 1    
    62   30   31 2    
    63   30   32 1    
    64   32   33 1    
    65   32   34 1    
    66   32  100 1    
    67   33  101 1    
    68   33  102 1    
    69   33  103 1    
    70   34   35 am   BACKBONE|DICT|INTERRES
    71   34  104 1    
    72   35   36 2    
    73   37   38 2    
    74   37   39 am   BACKBONE|DICT|INTERRES
    75   39   40 1    
    76   39  105 1    
    77   40   41 1    
    78   40   42 1    
    79   40  106 1    
    80   41  107 1    
    81   41  108 1    
    82   41  109 1    
    83   42   43 2    
    84   42   44 am   BACKBONE|DICT|INTERRES
    85   44   45 1    
    86   44  110 1    
    87   45   46 1    
    88   45   47 1    
    89   45  111 1    
    90   46  112 1    
    91   46  113 1    
    92   46  114 1    
    93   47   48 2    
    94   47   49 am   BACKBONE|DICT|INTERRES
    95   49   50 1    
    96   49  115 1    
    97   50   51 1    
    98   50   52 1    
    99   50  116 1    
   100   51  117 1    
   101   51  118 1    
   102   51  119 1    
   103   52   53 2    
   104   52   54 am   BACKBONE|DICT|INTERRES
   105   54   55 1    
   106   54  120 1    
   107   55   56 1    
   108   55   57 1    
   109   55  121 1    
   110   56  122 1    
   111   56  123 1    
   112   56  124 1    
   113   57   58 2    
   114   57   59 am   BACKBONE|DICT|INTERRES
   115   59   60 1    
   116   59  125 1    
   117   60   61 1    
   118   60   62 1    
   119   60  126 1    
   120   61  127 1    
   121   61  128 1    
   122   61  129 1    
   123   62   63 2    
   124   62   64 am   BACKBONE|DICT|INTERRES
   125   64   65 1    
   126   64  130 1    
   127   65   66 1    
   128   65   69 1    
   129   65  131 1    
   130   66   67 am   BACKBONE|DICT|INTERRES
   131   66   68 2    
   132   67  132 1    
   133   67  133 1    
   134   69   70 1    
   135   69  134 1    
   136   69  135 1    
   137   70   71 1    
   138   71  136 1    
   139   71  137 1    
@<TRIPOS>SUBSTRUCTURE
     1 UNK         1 GROUP             0       ****    0 ROOT    
