@<TRIPOS>MOLECULE
3R136
137   139    1
SMALL
USER_CHARGES


@<TRIPOS>ATOM
      1 CA         27.5836   22.1700    3.0531 C.3       0 UNK        -0.1979 
      2 C          27.8250   22.3711    1.5668 C.2       0 UNK         0.4864 
      3 O          27.8649   23.5113    1.0994 O.2       0 UNK        -0.5359 
      4 N          27.9733   21.2679    0.8205 N.am      1 UNK        -0.4318 
      5 CA         28.1493   21.1911   -0.6381 C.3       1 UNK         0.0824 
      6 C6         29.3959   21.9463   -1.1796 C.3       12 UNK        -0.0944 
      7 S7         30.9612   21.3198   -0.4859 S.3       12 UNK        -0.2672 
      8 C8         32.0091   22.8169   -0.5582 C.3       12 UNK         0.0333 
      9 C9         32.3584   23.4347    0.7976 C.ar      12 UNK        -0.0807 
     10 C10        33.5418   24.1741    0.9033 C.ar      12 UNK        -0.0894 
     11 C11        33.9299   24.7355    2.1221 C.ar      12 UNK        -0.0804 
     12 C12        33.1268   24.5464    3.2475 C.ar      12 UNK        -0.0824 
     13 C13        31.9202   23.8490    3.1577 C.ar      12 UNK        -0.0762 
     14 C14        31.5402   23.2966    1.9294 C.ar      12 UNK        -0.0782 
     15 C15        31.0624   23.6561    4.4042 C.3       12 UNK         0.0230 
     16 S16        29.6869   24.8506    4.5310 S.3       12 UNK        -0.2608 
     17 C17        30.5591   26.4500    4.7434 C.3       12 UNK        -0.0989 
     18 CA         30.1177   27.5782    3.7631 C.3       5 UNK         0.0716 
     19 N          29.6382   27.0541    2.4805 N.am      5 UNK        -0.4135 
     20 C          29.4798   27.7547    1.3532 C.2       4 UNK         0.5031 
     21 O          29.7422   28.9489    1.2379 O.2       4 UNK        -0.5229 
     22 CA         28.8541   27.0012    0.1740 C.3       4 UNK         0.0329 
     23 CB         29.8633   26.0305   -0.4581 C.3       4 UNK        -0.2001 
     24 N          27.6431   26.2715    0.5552 N.am      4 UNK        -0.4303 
     25 C          26.4924   26.8350    0.9500 C.2       3 UNK         0.5044 
     26 O          26.3638   28.0439    1.1471 O.2       3 UNK        -0.5152 
     27 CA         25.2967   25.8826    1.1674 C.3       3 UNK         0.0319 
     28 CB         23.9378   26.6142    1.2059 C.3       3 UNK        -0.2001 
     29 N          25.2731   24.7793    0.1962 N.am      3 UNK        -0.4354 
     30 C          25.1519   24.8654   -1.1396 C.2       2 UNK         0.4964 
     31 O          24.9234   25.9118   -1.7478 O.2       2 UNK        -0.5047 
     32 CA         25.3907   23.5606   -1.9188 C.3       2 UNK         0.0288 
     33 CB         25.5318   23.7716   -3.4402 C.3       2 UNK        -0.2113 
     34 N          26.5895   22.9161   -1.3884 N.am      2 UNK        -0.4145 
     35 C          26.8576   21.6075   -1.3721 C.2       1 UNK         0.5006 
     36 O          26.1308   20.7479   -1.8730 O.2       1 UNK        -0.5103 
     37 C          29.1394   28.5706    4.4298 C.2       5 UNK         0.5055 
     38 O          29.5712   29.3351    5.2932 O.2       5 UNK        -0.5220 
     39 N          27.8567   28.5568    4.0388 N.am      6 UNK        -0.4450 
     40 CA         26.8669   29.5420    4.4766 C.3       6 UNK         0.0367 
     41 CB         25.4593   28.9266    4.4438 C.3       6 UNK        -0.1929 
     42 C          26.9364   30.8109    3.6128 C.2       6 UNK         0.5070 
     43 O          26.9158   31.9138    4.1591 O.2       6 UNK        -0.5237 
     44 N          27.0186   30.6347    2.2856 N.am      7 UNK        -0.4739 
     45 CA         27.1187   31.7154    1.3025 C.3       7 UNK         0.0276 
     46 CB         26.8990   31.1444   -0.1080 C.3       7 UNK        -0.1927 
     47 C          28.4534   32.4735    1.3838 C.2       7 UNK         0.5013 
     48 O          28.4498   33.7049    1.4174 O.2       7 UNK        -0.5193 
     49 N          29.5625   31.7274    1.4272 N.am      8 UNK        -0.4253 
     50 CA         30.9177   32.2378    1.5863 C.3       8 UNK         0.0242 
     51 CB         31.8154   31.6457    0.4836 C.3       8 UNK        -0.2000 
     52 C          31.3948   31.8441    2.9864 C.2       8 UNK         0.4948 
     53 O          31.9836   30.7757    3.1579 O.2       8 UNK        -0.5275 
     54 N          31.1364   32.7197    3.9681 N.am      9 UNK        -0.4246 
     55 CA         31.4665   32.5302    5.3884 C.3       9 UNK         0.0261 
     56 CB         30.9936   33.7553    6.1870 C.3       9 UNK        -0.1959 
     57 C          32.9532   32.2407    5.6752 C.2       9 UNK         0.5033 
     58 O          33.2582   31.5841    6.6716 O.2       9 UNK        -0.5390 
     59 N          33.8450   32.6857    4.7778 N.am      10 UNK        -0.4215 
     60 CA         35.2777   32.3794    4.7716 C.3       10 UNK         0.0240 
     61 CB         35.9553   33.1681    3.6391 C.3       10 UNK        -0.1982 
     62 C          35.6035   30.8768    4.6490 C.2       10 UNK         0.4970 
     63 O          36.6720   30.4683    5.1061 O.2       10 UNK        -0.4916 
     64 N          34.6933   30.0828    4.0640 N.am      11 UNK        -0.4279 
     65 CA         34.7736   28.6140    4.0420 C.3       11 UNK         0.1003 
     66 C          34.3797   27.9442    5.3938 C.2       11 UNK         0.5709 
     67 N          33.8454   28.6588    6.3782 N.am      11 UNK        -0.7358 
     68 O          34.5799   26.7451    5.5622 O.2       11 UNK        -0.4999 
     69 C69        33.9906   28.0098    2.8350 C.3       12 UNK        -0.0954 
     70 S70        35.0765   27.2231    1.5985 S.3       12 UNK        -0.2268 
     71 C71        35.2299   25.5209    2.2320 C.3       12 UNK         0.0203 
     72 H72        26.8811   21.3561    3.2299 H         1 UNK         0.0888 
     73 H73        28.5184   21.9363    3.5596 H         1 UNK         0.0888 
     74 H74        27.1713   23.0748    3.4992 H         1 UNK         0.0888 
     75 H75        27.9177   20.3691    1.2795 H         1 UNK         0.3017 
     76 H76        28.2946   20.1327   -0.8616 H         1 UNK         0.0873 
     77 H77        29.4573   21.8469   -2.2651 H         1 UNK         0.0745 
     78 H78        29.3219   23.0150   -0.9787 H         1 UNK         0.0745 
     79 H79        32.9314   22.5316   -1.0666 H         1 UNK         0.0705 
     80 H80        31.5480   23.5783   -1.1878 H         1 UNK         0.0705 
     81 H81        34.1728   24.3078    0.0349 H         1 UNK         0.1334 
     82 H82        33.4415   24.9494    4.1989 H         1 UNK         0.1417 
     83 H83        30.6142   22.7463    1.8639 H         1 UNK         0.1562 
     84 H84        31.6765   23.7280    5.3034 H         1 UNK         0.0748 
     85 H85        30.6528   22.6456    4.4067 H         1 UNK         0.0748 
     86 H86        31.6274   26.2893    4.6239 H         1 UNK         0.0940 
     87 H87        30.4583   26.7558    5.7871 H         1 UNK         0.0940 
     88 H88        31.0040   28.1756    3.5385 H         1 UNK         0.0703 
     89 H89        29.3911   26.0737    2.4847 H         1 UNK         0.3081 
     90 H90        28.5748   27.7408   -0.5795 H         1 UNK         0.0719 
     91 H91        30.1182   25.2185    0.2229 H         1 UNK         0.0809 
     92 H92        29.4677   25.5890   -1.3727 H         1 UNK         0.0809 
     93 H93        30.7910   26.5418   -0.7192 H         1 UNK         0.0809 
     94 H94        27.7011   25.2556    0.5611 H         1 UNK         0.2990 
     95 H95        25.4523   25.4237    2.1448 H         1 UNK         0.0690 
     96 H96        23.1129   25.9129    1.3308 H         1 UNK         0.0788 
     97 H97        23.7581   27.1851    0.2944 H         1 UNK         0.0788 
     98 H98        23.8912   27.3151    2.0385 H         1 UNK         0.0788 
     99 H99        25.4851   23.8704    0.5847 H         1 UNK         0.2993 
    100 H100       24.5263   22.9191   -1.7337 H         1 UNK         0.0949 
    101 H101       26.3800   24.4147   -3.6784 H         1 UNK         0.0767 
    102 H102       25.6727   22.8246   -3.9615 H         1 UNK         0.0767 
    103 H103       24.6378   24.2381   -3.8559 H         1 UNK         0.0767 
    104 H104       27.2188   23.5146   -0.8655 H         1 UNK         0.3013 
    105 H105       27.5795   27.9211    3.3056 H         1 UNK         0.3121 
    106 H106       27.0761   29.8270    5.5103 H         1 UNK         0.0774 
    107 H107       25.1524   28.6696    3.4314 H         1 UNK         0.0815 
    108 H108       24.7221   29.6287    4.8354 H         1 UNK         0.0815 
    109 H109       25.4041   28.0245    5.0532 H         1 UNK         0.0815 
    110 H110       26.9699   29.6903    1.9113 H         1 UNK         0.2987 
    111 H111       26.3193   32.4308    1.5081 H         1 UNK         0.0949 
    112 H112       27.6440   30.3876   -0.3581 H         1 UNK         0.0806 
    113 H113       25.9154   30.6830   -0.1986 H         1 UNK         0.0806 
    114 H114       26.9612   31.9292   -0.8630 H         1 UNK         0.0806 
    115 H115       29.4819   30.7098    1.4160 H         1 UNK         0.3010 
    116 H116       30.9451   33.3259    1.4967 H         1 UNK         0.0829 
    117 H117       31.4766   31.9509   -0.5063 H         1 UNK         0.0813 
    118 H118       32.8457   31.9854    0.5955 H         1 UNK         0.0813 
    119 H119       31.8277   30.5551    0.5086 H         1 UNK         0.0813 
    120 H120       30.6270   33.5609    3.7353 H         1 UNK         0.3038 
    121 H121       30.9034   31.6609    5.7332 H         1 UNK         0.0769 
    122 H122       31.4928   34.6684    5.8603 H         1 UNK         0.0811 
    123 H123       31.2026   33.6321    7.2508 H         1 UNK         0.0811 
    124 H124       29.9182   33.9036    6.0867 H         1 UNK         0.0811 
    125 H125       33.4942   33.2187    3.9958 H         1 UNK         0.3204 
    126 H126       35.6888   32.7223    5.7234 H         1 UNK         0.0748 
    127 H127       37.0309   32.9857    3.6254 H         1 UNK         0.0771 
    128 H128       35.5647   32.8855    2.6605 H         1 UNK         0.0771 
    129 H129       35.8136   34.2422    3.7618 H         1 UNK         0.0771 
    130 H130       33.8157   30.4774    3.7361 H         1 UNK         0.2980 
    131 H131       35.8282   28.3606    3.9185 H         1 UNK         0.0545 
    132 H132       33.6886   29.6565    6.2896 H         1 UNK         0.3459 
    133 H133       33.6132   28.1961    7.2419 H         1 UNK         0.3459 
    134 H134       33.4314   28.7824    2.3066 H         1 UNK         0.0616 
    135 H135       33.2319   27.2925    3.1444 H         1 UNK         0.0616 
    136 H136       35.5789   25.5507    3.2652 H         1 UNK         0.0634 
    137 H137       36.0086   25.0082    1.6656 H         1 UNK         0.0634 
@<TRIPOS>BOND
     1    1    2 1    
     2    1   72 1    
     3    1   73 1    
     4    1   74 1    
     5    2    3 2    
     6    2    4 am   BACKBONE|DICT|INTERRES
     7    4    5 1    
     8    4   75 1    
     9    5    6 1    
    10    5   35 1    
    11    5   76 1    
    12    6    7 1    
    13    6   77 1    
    14    6   78 1    
    15    7    8 1    
    16    8    9 1    
    17    8   79 1    
    18    8   80 1    
    19    9   10 ar   
    20    9   14 ar   
    21   10   11 ar   
    22   10   81 1    
    23   11   12 ar   
    24   11   71 1    
    25   12   13 ar   
    26   12   82 1    
    27   13   14 ar   
    28   13   15 1    
    29   14   83 1    
    30   15   16 1    
    31   15   84 1    
    32   15   85 1    
    33   16   17 1    
    34   17   18 1    
    35   17   86 1    
    36   17   87 1    
    37   18   19 1    
    38   18   37 1    
    39   18   88 1    
    40   19   20 am   BACKBONE|DICT|INTERRES
    41   19   89 1    
    42   20   21 2    
    43   20   22 1    
    44   22   23 1    
    45   22   24 1    
    46   22   90 1    
    47   23   91 1    
    48   23   92 1    
    49   23   93 1    
    50   24   25 am   BACKBONE|DICT|INTERRES
    51   24   94 1    
    52   25   26 2    
    53   25   27 1    
    54   27   28 1    
    55   27   29 1    
    56   27   95 1    
    57   28   96 1    
    58   28   97 1    
    59   28   98 1    
    60   29   30 am   BACKBONE|DICT|INTERRES
    61   29   99 1    
    62   30   31 2    
    63   30   32 1    
    64   32   33 1    
    65   32   34 1    
    66   32  100 1    
    67   33  101 1    
    68   33  102 1    
    69   33  103 1    
    70   34   35 am   BACKBONE|DICT|INTERRES
    71   34  104 1    
    72   35   36 2    
    73   37   38 2    
    74   37   39 am   BACKBONE|DICT|INTERRES
    75   39   40 1    
    76   39  105 1    
    77   40   41 1    
    78   40   42 1    
    79   40  106 1    
    80   41  107 1    
    81   41  108 1    
    82   41  109 1    
    83   42   43 2    
    84   42   44 am   BACKBONE|DICT|INTERRES
    85   44   45 1    
    86   44  110 1    
    87   45   46 1    
    88   45   47 1    
    89   45  111 1    
    90   46  112 1    
    91   46  113 1    
    92   46  114 1    
    93   47   48 2    
    94   47   49 am   BACKBONE|DICT|INTERRES
    95   49   50 1    
    96   49  115 1    
    97   50   51 1    
    98   50   52 1    
    99   50  116 1    
   100   51  117 1    
   101   51  118 1    
   102   51  119 1    
   103   52   53 2    
   104   52   54 am   BACKBONE|DICT|INTERRES
   105   54   55 1    
   106   54  120 1    
   107   55   56 1    
   108   55   57 1    
   109   55  121 1    
   110   56  122 1    
   111   56  123 1    
   112   56  124 1    
   113   57   58 2    
   114   57   59 am   BACKBONE|DICT|INTERRES
   115   59   60 1    
   116   59  125 1    
   117   60   61 1    
   118   60   62 1    
   119   60  126 1    
   120   61  127 1    
   121   61  128 1    
   122   61  129 1    
   123   62   63 2    
   124   62   64 am   BACKBONE|DICT|INTERRES
   125   64   65 1    
   126   64  130 1    
   127   65   66 1    
   128   65   69 1    
   129   65  131 1    
   130   66   67 am   BACKBONE|DICT|INTERRES
   131   66   68 2    
   132   67  132 1    
   133   67  133 1    
   134   69   70 1    
   135   69  134 1    
   136   69  135 1    
   137   70   71 1    
   138   71  136 1    
   139   71  137 1    
@<TRIPOS>SUBSTRUCTURE
     1 UNK         1 GROUP             0       ****    0 ROOT    
