@<TRIPOS>MOLECULE
3R136
137   139    1
SMALL
USER_CHARGES


@<TRIPOS>ATOM
      1 CA         33.0213   24.9512    0.0171 C.3       0 UNK        -0.1979 
      2 C          31.5503   25.0931    0.3781 C.2       0 UNK         0.4864 
      3 O          31.0971   26.2017    0.6719 O.2       0 UNK        -0.5359 
      4 N          30.8038   23.9856    0.3295 N.am      1 UNK        -0.4318 
      5 CA         29.3598   23.9341    0.5457 C.3       1 UNK         0.0824 
      6 C6         28.9992   23.0609    1.7773 C.3       12 UNK        -0.0944 
      7 S7         27.5647   23.7183    2.6923 S.3       12 UNK        -0.2672 
      8 C8         28.2856   24.0390    4.3360 C.3       12 UNK         0.0333 
      9 C9         29.0858   25.3347    4.3833 C.ar      12 UNK        -0.0807 
     10 C10        30.4535   25.3408    4.0915 C.ar      12 UNK        -0.0894 
     11 C11        31.1945   26.5236    4.1762 C.ar      12 UNK        -0.0804 
     12 C12        30.5563   27.7121    4.5393 C.ar      12 UNK        -0.0824 
     13 C13        29.1931   27.7188    4.8454 C.ar      12 UNK        -0.0762 
     14 C14        28.4643   26.5265    4.7670 C.ar      12 UNK        -0.0782 
     15 C15        28.5189   29.0090    5.2913 C.3       12 UNK         0.0230 
     16 S16        27.0750   29.4285    4.2679 S.3       12 UNK        -0.2608 
     17 C17        27.8416   29.7152    2.6368 C.3       12 UNK        -0.0989 
     18 CA         27.7047   28.5185    1.6565 C.3       5 UNK         0.0716 
     19 N          26.3289   28.0194    1.5925 N.am      5 UNK        -0.4135 
     20 C          25.9467   26.9035    0.9664 C.2       4 UNK         0.5031 
     21 O          26.7170   26.1668    0.3394 O.2       4 UNK        -0.5229 
     22 CA         24.4571   26.5393    1.0502 C.3       4 UNK         0.0329 
     23 CB         23.6465   27.4009    0.0603 C.3       4 UNK        -0.2001 
     24 N          24.3888   25.1266    0.7033 N.am      4 UNK        -0.4303 
     25 C          23.3438   24.3182    0.5122 C.2       3 UNK         0.5044 
     26 O          22.1741   24.6271    0.7451 O.2       3 UNK        -0.5152 
     27 CA         23.6916   22.9157   -0.0396 C.3       3 UNK         0.0319 
     28 CB         22.5534   22.3086   -0.8872 C.3       3 UNK        -0.2001 
     29 N          24.9766   22.8840   -0.7655 N.am      3 UNK        -0.4354 
     30 C          25.2946   23.5580   -1.8853 C.2       2 UNK         0.4964 
     31 O          24.4928   24.2259   -2.5399 O.2       2 UNK        -0.5047 
     32 CA         26.7781   23.5315   -2.2855 C.3       2 UNK         0.0288 
     33 CB         27.0979   24.4247   -3.5005 C.3       2 UNK        -0.2113 
     34 N          27.5871   23.9618   -1.1440 N.am      2 UNK        -0.4145 
     35 C          28.7167   23.3776   -0.7355 C.2       1 UNK         0.5006 
     36 O          29.2412   22.4174   -1.3073 O.2       1 UNK        -0.5103 
     37 C          28.2029   28.9173    0.2517 C.2       5 UNK         0.5055 
     38 O          27.7361   29.9294   -0.2763 O.2       5 UNK        -0.5220 
     39 N          29.1238   28.1362   -0.3295 N.am      6 UNK        -0.4450 
     40 CA         29.7826   28.4748   -1.5940 C.3       6 UNK         0.0367 
     41 CB         30.0532   27.2058   -2.4197 C.3       6 UNK        -0.1929 
     42 C          31.0728   29.2523   -1.3032 C.2       6 UNK         0.5070 
     43 O          31.2932   30.3107   -1.8916 O.2       6 UNK        -0.5237 
     44 N          31.8648   28.7574   -0.3427 N.am      7 UNK        -0.4739 
     45 CA         33.0202   29.4445    0.2334 C.3       7 UNK         0.0276 
     46 CB         34.1193   28.4130    0.5454 C.3       7 UNK        -0.1927 
     47 C          32.5762   30.2301    1.4785 C.2       7 UNK         0.5013 
     48 O          33.0481   29.9564    2.5839 O.2       7 UNK        -0.5193 
     49 N          31.6423   31.1695    1.2790 N.am      8 UNK        -0.4253 
     50 CA         31.0845   32.0529    2.3034 C.3       8 UNK         0.0242 
     51 CB         29.8924   32.8162    1.6987 C.3       8 UNK        -0.2000 
     52 C          32.1567   33.0350    2.8238 C.2       8 UNK         0.4948 
     53 O          32.5727   33.8982    2.0509 O.2       8 UNK        -0.5275 
     54 N          32.6243   32.9527    4.0768 N.am      9 UNK        -0.4246 
     55 CA         32.3848   31.9314    5.0967 C.3       9 UNK         0.0261 
     56 CB         31.4365   32.4867    6.1746 C.3       9 UNK        -0.1959 
     57 C          33.7551   31.5174    5.6444 C.2       9 UNK         0.5033 
     58 O          34.1425   31.9293    6.7389 O.2       9 UNK        -0.5390 
     59 N          34.4864   30.7514    4.8263 N.am      10 UNK        -0.4215 
     60 CA         35.8291   30.2448    5.1195 C.3       10 UNK         0.0240 
     61 CB         36.4847   29.7827    3.8077 C.3       10 UNK        -0.1982 
     62 C          35.8282   29.1009    6.1476 C.2       10 UNK         0.4970 
     63 O          36.8114   28.9398    6.8717 O.2       10 UNK        -0.4916 
     64 N          34.7383   28.3257    6.1793 N.am      11 UNK        -0.4279 
     65 CA         34.5103   27.2203    7.1166 C.3       11 UNK         0.1003 
     66 C          34.2958   27.7244    8.5692 C.2       11 UNK         0.5709 
     67 N          34.8413   27.0275    9.5567 N.am      11 UNK        -0.7358 
     68 O          33.6044   28.7125    8.8092 O.2       11 UNK        -0.4999 
     69 C69        33.3188   26.3418    6.6607 C.3       12 UNK        -0.0954 
     70 S70        33.6316   25.5035    5.0687 S.3       12 UNK        -0.2268 
     71 C71        32.6881   26.5183    3.8848 C.3       12 UNK         0.0203 
     72 H72        33.6489   25.1659    0.8806 H         1 UNK         0.0888 
     73 H73        33.2593   23.9463   -0.3310 H         1 UNK         0.0888 
     74 H74        33.2794   25.6515   -0.7765 H         1 UNK         0.0888 
     75 H75        31.2116   23.1163    0.0119 H         1 UNK         0.3017 
     76 H76        28.9864   24.9474    0.7045 H         1 UNK         0.0873 
     77 H77        29.8474   23.0006    2.4582 H         1 UNK         0.0745 
     78 H78        28.7946   22.0231    1.5051 H         1 UNK         0.0745 
     79 H79        27.4734   24.0849    5.0631 H         1 UNK         0.0705 
     80 H80        28.9074   23.1957    4.6404 H         1 UNK         0.0705 
     81 H81        30.9541   24.4238    3.8163 H         1 UNK         0.1334 
     82 H82        31.1270   28.6281    4.6001 H         1 UNK         0.1417 
     83 H83        27.4097   26.5285    5.0072 H         1 UNK         0.1562 
     84 H84        29.2188   29.8463    5.2790 H         1 UNK         0.0748 
     85 H85        28.1945   28.8956    6.3265 H         1 UNK         0.0748 
     86 H86        28.8942   29.9650    2.7718 H         1 UNK         0.0940 
     87 H87        27.3695   30.6098    2.2256 H         1 UNK         0.0940 
     88 H88        28.3316   27.7037    2.0264 H         1 UNK         0.0703 
     89 H89        25.6399   28.5746    2.0780 H         1 UNK         0.3081 
     90 H90        24.0986   26.6782    2.0715 H         1 UNK         0.0719 
     91 H91        23.9627   27.2308   -0.9701 H         1 UNK         0.0809 
     92 H92        22.5793   27.1891    0.1211 H         1 UNK         0.0809 
     93 H93        23.7701   28.4643    0.2687 H         1 UNK         0.0809 
     94 H94        25.3081   24.7552    0.4996 H         1 UNK         0.2990 
     95 H95        23.8242   22.2772    0.8351 H         1 UNK         0.0690 
     96 H96        22.8221   21.3220   -1.2645 H         1 UNK         0.0788 
     97 H97        22.3016   22.9383   -1.7409 H         1 UNK         0.0788 
     98 H98        21.6454   22.1910   -0.2944 H         1 UNK         0.0788 
     99 H99        25.7154   22.3665   -0.3082 H         1 UNK         0.2993 
    100 H100       27.0104   22.4970   -2.5484 H         1 UNK         0.0949 
    101 H101       26.5170   24.1228   -4.3730 H         1 UNK         0.0767 
    102 H102       26.8700   25.4723   -3.2992 H         1 UNK         0.0767 
    103 H103       28.1511   24.3578   -3.7736 H         1 UNK         0.0767 
    104 H104       27.2398   24.7686   -0.6229 H         1 UNK         0.3013 
    105 H105       29.4980   27.3363    0.1725 H         1 UNK         0.3121 
    106 H106       29.1302   29.1151   -2.1920 H         1 UNK         0.0774 
    107 H107       29.1436   26.6208   -2.5557 H         1 UNK         0.0815 
    108 H108       30.4232   27.4661   -3.4119 H         1 UNK         0.0815 
    109 H109       30.8002   26.5614   -1.9605 H         1 UNK         0.0815 
    110 H110       31.5930   27.8839    0.1059 H         1 UNK         0.2987 
    111 H111       33.4293   30.1625   -0.4810 H         1 UNK         0.0949 
    112 H112       35.0033   28.8989    0.9598 H         1 UNK         0.0806 
    113 H113       33.7829   27.6728    1.2707 H         1 UNK         0.0806 
    114 H114       34.4334   27.8850   -0.3546 H         1 UNK         0.0806 
    115 H115       31.3340   31.3289    0.3294 H         1 UNK         0.3010 
    116 H116       30.6804   31.4406    3.1049 H         1 UNK         0.0829 
    117 H117       29.1301   32.1350    1.3211 H         1 UNK         0.0813 
    118 H118       29.4180   33.4512    2.4479 H         1 UNK         0.0813 
    119 H119       30.1966   33.4594    0.8718 H         1 UNK         0.0813 
    120 H120       33.3318   33.6249    4.3397 H         1 UNK         0.3038 
    121 H121       31.9434   31.0228    4.6929 H         1 UNK         0.0769 
    122 H122       31.8285   33.3970    6.6299 H         1 UNK         0.0811 
    123 H123       31.2871   31.7593    6.9738 H         1 UNK         0.0811 
    124 H124       30.4561   32.7175    5.7576 H         1 UNK         0.0811 
    125 H125       34.0693   30.4712    3.9366 H         1 UNK         0.3204 
    126 H126       36.4229   31.0630    5.5325 H         1 UNK         0.0748 
    127 H127       36.5441   30.5970    3.0852 H         1 UNK         0.0771 
    128 H128       37.5019   29.4291    3.9821 H         1 UNK         0.0771 
    129 H129       35.9288   28.9653    3.3459 H         1 UNK         0.0771 
    130 H130       33.9746   28.5478    5.5620 H         1 UNK         0.2980 
    131 H131       35.4085   26.5991    7.1082 H         1 UNK         0.0545 
    132 H132       35.3988   26.2080    9.3715 H         1 UNK         0.3459 
    133 H133       34.6984   27.3313   10.5072 H         1 UNK         0.3459 
    134 H134       33.1265   25.5575    7.3952 H         1 UNK         0.0616 
    135 H135       32.4023   26.9308    6.6079 H         1 UNK         0.0616 
    136 H136       32.8479   26.1188    2.8854 H         1 UNK         0.0634 
    137 H137       33.0920   27.5310    3.8754 H         1 UNK         0.0634 
@<TRIPOS>BOND
     1    1    2 1    
     2    1   72 1    
     3    1   73 1    
     4    1   74 1    
     5    2    3 2    
     6    2    4 am   BACKBONE|DICT|INTERRES
     7    4    5 1    
     8    4   75 1    
     9    5    6 1    
    10    5   35 1    
    11    5   76 1    
    12    6    7 1    
    13    6   77 1    
    14    6   78 1    
    15    7    8 1    
    16    8    9 1    
    17    8   79 1    
    18    8   80 1    
    19    9   10 ar   
    20    9   14 ar   
    21   10   11 ar   
    22   10   81 1    
    23   11   12 ar   
    24   11   71 1    
    25   12   13 ar   
    26   12   82 1    
    27   13   14 ar   
    28   13   15 1    
    29   14   83 1    
    30   15   16 1    
    31   15   84 1    
    32   15   85 1    
    33   16   17 1    
    34   17   18 1    
    35   17   86 1    
    36   17   87 1    
    37   18   19 1    
    38   18   37 1    
    39   18   88 1    
    40   19   20 am   BACKBONE|DICT|INTERRES
    41   19   89 1    
    42   20   21 2    
    43   20   22 1    
    44   22   23 1    
    45   22   24 1    
    46   22   90 1    
    47   23   91 1    
    48   23   92 1    
    49   23   93 1    
    50   24   25 am   BACKBONE|DICT|INTERRES
    51   24   94 1    
    52   25   26 2    
    53   25   27 1    
    54   27   28 1    
    55   27   29 1    
    56   27   95 1    
    57   28   96 1    
    58   28   97 1    
    59   28   98 1    
    60   29   30 am   BACKBONE|DICT|INTERRES
    61   29   99 1    
    62   30   31 2    
    63   30   32 1    
    64   32   33 1    
    65   32   34 1    
    66   32  100 1    
    67   33  101 1    
    68   33  102 1    
    69   33  103 1    
    70   34   35 am   BACKBONE|DICT|INTERRES
    71   34  104 1    
    72   35   36 2    
    73   37   38 2    
    74   37   39 am   BACKBONE|DICT|INTERRES
    75   39   40 1    
    76   39  105 1    
    77   40   41 1    
    78   40   42 1    
    79   40  106 1    
    80   41  107 1    
    81   41  108 1    
    82   41  109 1    
    83   42   43 2    
    84   42   44 am   BACKBONE|DICT|INTERRES
    85   44   45 1    
    86   44  110 1    
    87   45   46 1    
    88   45   47 1    
    89   45  111 1    
    90   46  112 1    
    91   46  113 1    
    92   46  114 1    
    93   47   48 2    
    94   47   49 am   BACKBONE|DICT|INTERRES
    95   49   50 1    
    96   49  115 1    
    97   50   51 1    
    98   50   52 1    
    99   50  116 1    
   100   51  117 1    
   101   51  118 1    
   102   51  119 1    
   103   52   53 2    
   104   52   54 am   BACKBONE|DICT|INTERRES
   105   54   55 1    
   106   54  120 1    
   107   55   56 1    
   108   55   57 1    
   109   55  121 1    
   110   56  122 1    
   111   56  123 1    
   112   56  124 1    
   113   57   58 2    
   114   57   59 am   BACKBONE|DICT|INTERRES
   115   59   60 1    
   116   59  125 1    
   117   60   61 1    
   118   60   62 1    
   119   60  126 1    
   120   61  127 1    
   121   61  128 1    
   122   61  129 1    
   123   62   63 2    
   124   62   64 am   BACKBONE|DICT|INTERRES
   125   64   65 1    
   126   64  130 1    
   127   65   66 1    
   128   65   69 1    
   129   65  131 1    
   130   66   67 am   BACKBONE|DICT|INTERRES
   131   66   68 2    
   132   67  132 1    
   133   67  133 1    
   134   69   70 1    
   135   69  134 1    
   136   69  135 1    
   137   70   71 1    
   138   71  136 1    
   139   71  137 1    
@<TRIPOS>SUBSTRUCTURE
     1 UNK         1 GROUP             0       ****    0 ROOT    
