@<TRIPOS>MOLECULE
3R136
137   139    1
SMALL
USER_CHARGES


@<TRIPOS>ATOM
      1 CA         30.4786   25.0395   -2.3588 C.3       0 UNK        -0.1979 
      2 C          30.0686   24.5247   -0.9878 C.2       0 UNK         0.4864 
      3 O          29.4883   25.2740   -0.1974 O.2       0 UNK        -0.5359 
      4 N          30.3343   23.2397   -0.7144 N.am      1 UNK        -0.4318 
      5 CA         30.0855   22.5165    0.5435 C.3       1 UNK         0.0824 
      6 C6         30.9356   21.2152    0.5772 C.3       12 UNK        -0.0944 
      7 S7         31.3288   20.6297    2.2599 S.3       12 UNK        -0.2672 
      8 C8         32.9862   21.3408    2.5324 C.3       12 UNK         0.0333 
      9 C9         32.9211   22.8415    2.7757 C.ar      12 UNK        -0.0807 
     10 C10        33.4877   23.7426    1.8653 C.ar      12 UNK        -0.0894 
     11 C11        33.4035   25.1206    2.0941 C.ar      12 UNK        -0.0804 
     12 C12        32.7493   25.5910    3.2335 C.ar      12 UNK        -0.0824 
     13 C13        32.1561   24.7027    4.1296 C.ar      12 UNK        -0.0762 
     14 C14        32.2672   23.3283    3.9122 C.ar      12 UNK        -0.0782 
     15 C15        31.3350   25.2402    5.2879 C.3       12 UNK         0.0230 
     16 S16        29.5473   24.9791    5.0401 S.3       12 UNK        -0.2608 
     17 C17        29.2559   25.5501    3.3230 C.3       12 UNK        -0.0989 
     18 CA         29.2303   27.0853    3.1015 C.3       5 UNK         0.0716 
     19 N          29.0233   27.3963    1.6784 N.am      5 UNK        -0.4135 
     20 C          28.9335   28.6188    1.1323 C.2       4 UNK         0.5031 
     21 O          29.0908   29.6668    1.7514 O.2       4 UNK        -0.5229 
     22 CA         28.4991   28.7013   -0.3386 C.3       4 UNK         0.0329 
     23 CB         29.6823   28.5394   -1.3019 C.3       4 UNK        -0.2001 
     24 N          27.4362   27.7391   -0.6450 N.am      4 UNK        -0.4303 
     25 C          26.1642   27.9147   -0.2567 C.2       3 UNK         0.5044 
     26 O          25.7728   28.8996    0.3700 O.2       3 UNK        -0.5152 
     27 CA         25.1541   26.8118   -0.6154 C.3       3 UNK         0.0319 
     28 CB         24.6976   26.9518   -2.0765 C.3       3 UNK        -0.2001 
     29 N          25.6308   25.4457   -0.3810 N.am      3 UNK        -0.4354 
     30 C          25.9879   24.9442    0.8096 C.2       2 UNK         0.4964 
     31 O          26.0634   25.6143    1.8388 O.2       2 UNK        -0.5047 
     32 CA         26.3425   23.4517    0.8573 C.3       2 UNK         0.0288 
     33 CB         25.5835   22.6047   -0.1899 C.3       2 UNK        -0.2113 
     34 N          27.7821   23.3525    0.6703 N.am      2 UNK        -0.4145 
     35 C          28.5758   22.2914    0.8387 C.2       1 UNK         0.5006 
     36 O          28.1594   21.1858    1.1901 O.2       1 UNK        -0.5103 
     37 C          28.2002   27.7888    4.0145 C.2       5 UNK         0.5055 
     38 O          28.5776   28.3512    5.0439 O.2       5 UNK        -0.5220 
     39 N          26.9222   27.7687    3.6082 N.am      6 UNK        -0.4450 
     40 CA         25.8267   28.4624    4.2875 C.3       6 UNK         0.0367 
     41 CB         24.4863   27.9934    3.6999 C.3       6 UNK        -0.1929 
     42 C          25.9363   29.9981    4.2283 C.2       6 UNK         0.5070 
     43 O          25.4626   30.6640    5.1497 O.2       6 UNK        -0.5237 
     44 N          26.5431   30.5367    3.1614 N.am      7 UNK        -0.4739 
     45 CA         26.7763   31.9707    2.9832 C.3       7 UNK         0.0276 
     46 CB         26.9165   32.2971    1.4870 C.3       7 UNK        -0.1927 
     47 C          27.9998   32.4604    3.7752 C.2       7 UNK         0.5013 
     48 O          27.9110   33.5030    4.4258 O.2       7 UNK        -0.5193 
     49 N          29.1084   31.7111    3.7206 N.am      8 UNK        -0.4253 
     50 CA         30.3499   32.0030    4.4325 C.3       8 UNK         0.0242 
     51 CB         31.2043   32.9928    3.6197 C.3       8 UNK        -0.2000 
     52 C          31.1131   30.6978    4.6695 C.2       8 UNK         0.4948 
     53 O          31.2693   29.9080    3.7386 O.2       8 UNK        -0.5275 
     54 N          31.6401   30.5179    5.8880 N.am      9 UNK        -0.4246 
     55 CA         32.3272   29.2998    6.3406 C.3       9 UNK         0.0261 
     56 CB         32.6912   29.4504    7.8268 C.3       9 UNK        -0.1959 
     57 C          33.5713   28.8925    5.5243 C.2       9 UNK         0.5033 
     58 O          33.9508   27.7225    5.5610 O.2       9 UNK        -0.5390 
     59 N          34.1756   29.8497    4.8100 N.am      10 UNK        -0.4215 
     60 CA         35.3214   29.6487    3.9207 C.3       10 UNK         0.0240 
     61 CB         36.3592   30.7488    4.2126 C.3       10 UNK        -0.1982 
     62 C          34.9317   29.6394    2.4280 C.2       10 UNK         0.4970 
     63 O          35.8351   29.6405    1.5913 O.2       10 UNK        -0.4916 
     64 N          33.6277   29.6598    2.1060 N.am      11 UNK        -0.4279 
     65 CA         33.0685   29.7856    0.7443 C.3       11 UNK         0.1003 
     66 C          33.3064   31.1728    0.0697 C.2       11 UNK         0.5709 
     67 N          33.7545   32.1970    0.7870 N.am      11 UNK        -0.7358 
     68 O          33.0434   31.3417   -1.1186 O.2       11 UNK        -0.4999 
     69 C69        33.4245   28.5901   -0.1942 C.3       12 UNK        -0.0954 
     70 S70        32.6144   27.0467    0.3237 S.3       12 UNK        -0.2268 
     71 C71        33.9707   26.1264    1.1076 C.3       12 UNK         0.0203 
     72 H72        30.7606   24.2289   -3.0301 H         1 UNK         0.0888 
     73 H73        29.6560   25.5866   -2.8181 H         1 UNK         0.0888 
     74 H74        31.3294   25.7137   -2.2650 H         1 UNK         0.0888 
     75 H75        30.7707   22.6844   -1.4362 H         1 UNK         0.3017 
     76 H76        30.4493   23.1673    1.3403 H         1 UNK         0.0873 
     77 H77        30.4412   20.4104    0.0299 H         1 UNK         0.0745 
     78 H78        31.8838   21.3713    0.0601 H         1 UNK         0.0745 
     79 H79        33.4339   20.8616    3.4042 H         1 UNK         0.0705 
     80 H80        33.6345   21.1032    1.6875 H         1 UNK         0.0705 
     81 H81        33.9808   23.3743    0.9761 H         1 UNK         0.1334 
     82 H82        32.6616   26.6574    3.3930 H         1 UNK         0.1417 
     83 H83        31.8018   22.6376    4.6027 H         1 UNK         0.1562 
     84 H84        31.5153   26.3062    5.4241 H         1 UNK         0.0748 
     85 H85        31.6453   24.7554    6.2144 H         1 UNK         0.0748 
     86 H86        28.3049   25.1175    3.0138 H         1 UNK         0.0940 
     87 H87        29.9947   25.0975    2.6625 H         1 UNK         0.0940 
     88 H88        30.2138   27.4793    3.3627 H         1 UNK         0.0703 
     89 H89        28.9726   26.6017    1.0471 H         1 UNK         0.3081 
     90 H90        28.0983   29.7048   -0.5003 H         1 UNK         0.0719 
     91 H91        30.1747   27.5789   -1.1805 H         1 UNK         0.0809 
     92 H92        29.3662   28.6280   -2.3412 H         1 UNK         0.0809 
     93 H93        30.4327   29.3106   -1.1242 H         1 UNK         0.0809 
     94 H94        27.6989   26.8872   -1.1195 H         1 UNK         0.2990 
     95 H95        24.2804   26.9590    0.0232 H         1 UNK         0.0690 
     96 H96        23.8914   26.2558   -2.3091 H         1 UNK         0.0788 
     97 H97        25.5138   26.7673   -2.7762 H         1 UNK         0.0788 
     98 H98        24.3209   27.9568   -2.2730 H         1 UNK         0.0788 
     99 H99        25.6123   24.8191   -1.1726 H         1 UNK         0.2993 
    100 H100       26.0933   23.0870    1.8559 H         1 UNK         0.0949 
    101 H101       24.5090   22.7876   -0.1406 H         1 UNK         0.0767 
    102 H102       25.9134   22.8130   -1.2082 H         1 UNK         0.0767 
    103 H103       25.7296   21.5391   -0.0128 H         1 UNK         0.0767 
    104 H104       28.2484   24.2128    0.3804 H         1 UNK         0.3013 
    105 H105       26.6766   27.2136    2.7927 H         1 UNK         0.3121 
    106 H106       25.8548   28.1740    5.3404 H         1 UNK         0.0774 
    107 H107       23.6480   28.4701    4.2096 H         1 UNK         0.0815 
    108 H108       24.4043   28.2353    2.6398 H         1 UNK         0.0815 
    109 H109       24.3611   26.9157    3.8073 H         1 UNK         0.0815 
    110 H110       26.9294   29.9211    2.4566 H         1 UNK         0.2987 
    111 H111       25.9033   32.5111    3.3565 H         1 UNK         0.0949 
    112 H112       27.7956   31.8286    1.0451 H         1 UNK         0.0806 
    113 H113       26.0435   31.9639    0.9252 H         1 UNK         0.0806 
    114 H114       27.0119   33.3726    1.3329 H         1 UNK         0.0806 
    115 H115       29.1213   30.8662    3.1463 H         1 UNK         0.3010 
    116 H116       30.1092   32.4472    5.4008 H         1 UNK         0.0829 
    117 H117       30.6911   33.9454    3.4881 H         1 UNK         0.0813 
    118 H118       32.1500   33.2018    4.1210 H         1 UNK         0.0813 
    119 H119       31.4356   32.5996    2.6288 H         1 UNK         0.0813 
    120 H120       31.4937   31.2320    6.5875 H         1 UNK         0.3038 
    121 H121       31.6073   28.4845    6.2503 H         1 UNK         0.0769 
    122 H122       33.3797   30.2802    7.9916 H         1 UNK         0.0811 
    123 H123       31.8051   29.6198    8.4389 H         1 UNK         0.0811 
    124 H124       33.1733   28.5475    8.2047 H         1 UNK         0.0811 
    125 H125       33.7894   30.7815    4.8513 H         1 UNK         0.3204 
    126 H126       35.7898   28.6838    4.1262 H         1 UNK         0.0748 
    127 H127       37.2651   30.6046    3.6221 H         1 UNK         0.0771 
    128 H128       35.9731   31.7422    3.9807 H         1 UNK         0.0771 
    129 H129       36.6582   30.7417    5.2610 H         1 UNK         0.0771 
    130 H130       32.9266   29.6573    2.8428 H         1 UNK         0.2980 
    131 H131       31.9882   29.7628    0.8928 H         1 UNK         0.0545 
    132 H132       33.8898   33.0886    0.3377 H         1 UNK         0.3459 
    133 H133       33.9732   32.0834    1.7619 H         1 UNK         0.3459 
    134 H134       34.5015   28.4436   -0.2766 H         1 UNK         0.0616 
    135 H135       33.0749   28.7776   -1.2105 H         1 UNK         0.0616 
    136 H136       34.5695   25.6370    0.3383 H         1 UNK         0.0634 
    137 H137       34.6324   26.8111    1.6382 H         1 UNK         0.0634 
@<TRIPOS>BOND
     1    1    2 1    
     2    1   72 1    
     3    1   73 1    
     4    1   74 1    
     5    2    3 2    
     6    2    4 am   BACKBONE|DICT|INTERRES
     7    4    5 1    
     8    4   75 1    
     9    5    6 1    
    10    5   35 1    
    11    5   76 1    
    12    6    7 1    
    13    6   77 1    
    14    6   78 1    
    15    7    8 1    
    16    8    9 1    
    17    8   79 1    
    18    8   80 1    
    19    9   10 ar   
    20    9   14 ar   
    21   10   11 ar   
    22   10   81 1    
    23   11   12 ar   
    24   11   71 1    
    25   12   13 ar   
    26   12   82 1    
    27   13   14 ar   
    28   13   15 1    
    29   14   83 1    
    30   15   16 1    
    31   15   84 1    
    32   15   85 1    
    33   16   17 1    
    34   17   18 1    
    35   17   86 1    
    36   17   87 1    
    37   18   19 1    
    38   18   37 1    
    39   18   88 1    
    40   19   20 am   BACKBONE|DICT|INTERRES
    41   19   89 1    
    42   20   21 2    
    43   20   22 1    
    44   22   23 1    
    45   22   24 1    
    46   22   90 1    
    47   23   91 1    
    48   23   92 1    
    49   23   93 1    
    50   24   25 am   BACKBONE|DICT|INTERRES
    51   24   94 1    
    52   25   26 2    
    53   25   27 1    
    54   27   28 1    
    55   27   29 1    
    56   27   95 1    
    57   28   96 1    
    58   28   97 1    
    59   28   98 1    
    60   29   30 am   BACKBONE|DICT|INTERRES
    61   29   99 1    
    62   30   31 2    
    63   30   32 1    
    64   32   33 1    
    65   32   34 1    
    66   32  100 1    
    67   33  101 1    
    68   33  102 1    
    69   33  103 1    
    70   34   35 am   BACKBONE|DICT|INTERRES
    71   34  104 1    
    72   35   36 2    
    73   37   38 2    
    74   37   39 am   BACKBONE|DICT|INTERRES
    75   39   40 1    
    76   39  105 1    
    77   40   41 1    
    78   40   42 1    
    79   40  106 1    
    80   41  107 1    
    81   41  108 1    
    82   41  109 1    
    83   42   43 2    
    84   42   44 am   BACKBONE|DICT|INTERRES
    85   44   45 1    
    86   44  110 1    
    87   45   46 1    
    88   45   47 1    
    89   45  111 1    
    90   46  112 1    
    91   46  113 1    
    92   46  114 1    
    93   47   48 2    
    94   47   49 am   BACKBONE|DICT|INTERRES
    95   49   50 1    
    96   49  115 1    
    97   50   51 1    
    98   50   52 1    
    99   50  116 1    
   100   51  117 1    
   101   51  118 1    
   102   51  119 1    
   103   52   53 2    
   104   52   54 am   BACKBONE|DICT|INTERRES
   105   54   55 1    
   106   54  120 1    
   107   55   56 1    
   108   55   57 1    
   109   55  121 1    
   110   56  122 1    
   111   56  123 1    
   112   56  124 1    
   113   57   58 2    
   114   57   59 am   BACKBONE|DICT|INTERRES
   115   59   60 1    
   116   59  125 1    
   117   60   61 1    
   118   60   62 1    
   119   60  126 1    
   120   61  127 1    
   121   61  128 1    
   122   61  129 1    
   123   62   63 2    
   124   62   64 am   BACKBONE|DICT|INTERRES
   125   64   65 1    
   126   64  130 1    
   127   65   66 1    
   128   65   69 1    
   129   65  131 1    
   130   66   67 am   BACKBONE|DICT|INTERRES
   131   66   68 2    
   132   67  132 1    
   133   67  133 1    
   134   69   70 1    
   135   69  134 1    
   136   69  135 1    
   137   70   71 1    
   138   71  136 1    
   139   71  137 1    
@<TRIPOS>SUBSTRUCTURE
     1 UNK         1 GROUP             0       ****    0 ROOT    
