@<TRIPOS>MOLECULE
3R136
137   139    1
SMALL
USER_CHARGES


@<TRIPOS>ATOM
      1 CA         29.9484   19.1172    5.4659 C.3       0 UNK        -0.1979 
      2 C          28.8422   19.5976    4.5379 C.2       0 UNK         0.4864 
      3 O          27.6630   19.4545    4.8661 O.2       0 UNK        -0.5359 
      4 N          29.2131   20.1555    3.3790 N.am      1 UNK        -0.4318 
      5 CA         28.2964   20.7445    2.3991 C.3       1 UNK         0.0824 
      6 C6         28.9448   20.8476    0.9898 C.3       12 UNK        -0.0944 
      7 S7         30.5605   21.7031    0.9419 S.3       12 UNK        -0.2672 
      8 C8         30.0694   23.3936    0.4695 C.3       12 UNK         0.0333 
      9 C9         31.2757   24.3155    0.3611 C.ar      12 UNK        -0.0807 
     10 C10        32.0254   24.6242    1.4996 C.ar      12 UNK        -0.0894 
     11 C11        33.1327   25.4755    1.4193 C.ar      12 UNK        -0.0804 
     12 C12        33.4832   26.0256    0.1814 C.ar      12 UNK        -0.0824 
     13 C13        32.7401   25.7278   -0.9659 C.ar      12 UNK        -0.0762 
     14 C14        31.6402   24.8680   -0.8701 C.ar      12 UNK        -0.0782 
     15 C15        33.1397   26.3119   -2.3162 C.3       12 UNK         0.0230 
     16 S16        32.8131   28.1016   -2.4423 S.3       12 UNK        -0.2608 
     17 C17        30.9955   28.1703   -2.2712 C.3       12 UNK        -0.0989 
     18 CA         30.4594   29.4874   -1.6537 C.3       5 UNK         0.0716 
     19 N          28.9967   29.5053   -1.7385 N.am      5 UNK        -0.4135 
     20 C          28.1567   30.4464   -1.2828 C.2       4 UNK         0.5031 
     21 O          28.5129   31.5165   -0.7841 O.2       4 UNK        -0.5229 
     22 CA         26.6524   30.1214   -1.3908 C.3       4 UNK         0.0329 
     23 CB         26.0518   30.7754   -2.6453 C.3       4 UNK        -0.2001 
     24 N          26.3811   28.6766   -1.4161 N.am      4 UNK        -0.4303 
     25 C          26.5331   27.8637   -0.3611 C.2       3 UNK         0.5044 
     26 O          26.7942   28.2553    0.7780 O.2       3 UNK        -0.5152 
     27 CA         26.4237   26.3588   -0.6311 C.3       3 UNK         0.0319 
     28 CB         27.6480   25.8634   -1.4321 C.3       3 UNK        -0.2001 
     29 N          26.3576   25.6765    0.6581 N.am      3 UNK        -0.4354 
     30 C          26.0453   24.3946    0.8573 C.2       2 UNK         0.4964 
     31 O          25.7184   23.6152   -0.0419 O.2       2 UNK        -0.5047 
     32 CA         26.1132   23.8881    2.3025 C.3       2 UNK         0.0288 
     33 CB         24.7181   23.8770    2.9488 C.3       2 UNK        -0.2113 
     34 N          26.6412   22.5285    2.2524 N.am      2 UNK        -0.4145 
     35 C          27.7495   22.1086    2.8709 C.2       1 UNK         0.5006 
     36 O          28.3575   22.7692    3.7184 O.2       1 UNK        -0.5103 
     37 C          30.9512   29.6872   -0.2024 C.2       5 UNK         0.5055 
     38 O          30.2853   29.2445    0.7359 O.2       5 UNK        -0.5220 
     39 N          32.1057   30.3552   -0.0584 N.am      6 UNK        -0.4450 
     40 CA         32.7675   30.7047    1.2041 C.3       6 UNK         0.0367 
     41 CB         33.3043   29.4408    1.9095 C.3       6 UNK        -0.1929 
     42 C          31.8753   31.5675    2.1156 C.2       6 UNK         0.5070 
     43 O          31.7820   31.2983    3.3115 O.2       6 UNK        -0.5237 
     44 N          31.2190   32.5758    1.5192 N.am      7 UNK        -0.4739 
     45 CA         30.2996   33.5294    2.1554 C.3       7 UNK         0.0276 
     46 CB         31.0799   34.4994    3.0687 C.3       7 UNK        -0.1927 
     47 C          29.1363   32.8259    2.8817 C.2       7 UNK         0.5013 
     48 O          28.9395   33.0353    4.0800 O.2       7 UNK        -0.5193 
     49 N          28.4098   31.9851    2.1310 N.am      8 UNK        -0.4253 
     50 CA         27.3252   31.1106    2.5895 C.3       8 UNK         0.0242 
     51 CB         26.1229   31.9261    3.1137 C.3       8 UNK        -0.2000 
     52 C          27.8175   30.0332    3.5766 C.2       8 UNK         0.4948 
     53 O          27.2325   29.8658    4.6491 O.2       8 UNK        -0.5275 
     54 N          28.8865   29.3245    3.1831 N.am      9 UNK        -0.4246 
     55 CA         29.5402   28.2199    3.8902 C.3       9 UNK         0.0261 
     56 CB         28.6340   26.9708    3.9068 C.3       9 UNK        -0.1959 
     57 C          30.0848   28.5995    5.2813 C.2       9 UNK         0.5033 
     58 O          30.0181   27.7925    6.2113 O.2       9 UNK        -0.5390 
     59 N          30.6705   29.7981    5.3982 N.am      10 UNK        -0.4215 
     60 CA         31.4112   30.2641    6.5716 C.3       10 UNK         0.0240 
     61 CB         31.2093   31.7832    6.7202 C.3       10 UNK        -0.1982 
     62 C          32.8902   29.8665    6.4162 C.2       10 UNK         0.4970 
     63 O          33.7714   30.7268    6.3827 O.2       10 UNK        -0.4916 
     64 N          33.1201   28.5567    6.2745 N.am      11 UNK        -0.4279 
     65 CA         34.4061   27.9407    5.9153 C.3       11 UNK         0.1003 
     66 C          35.4931   27.9764    7.0285 C.2       11 UNK         0.5709 
     67 N          35.1689   28.3254    8.2680 N.am      11 UNK        -0.7358 
     68 O          36.6562   27.6854    6.7589 O.2       11 UNK        -0.4999 
     69 C69        34.2040   26.4964    5.3830 C.3       12 UNK        -0.0954 
     70 S70        32.9702   26.3928    4.0403 S.3       12 UNK        -0.2268 
     71 C71        33.9730   25.7630    2.6587 C.3       12 UNK         0.0203 
     72 H72        29.8439   18.0490    5.6536 H         1 UNK         0.0888 
     73 H73        30.9382   19.2922    5.0446 H         1 UNK         0.0888 
     74 H74        29.8897   19.6392    6.4206 H         1 UNK         0.0888 
     75 H75        30.1941   20.2810    3.1725 H         1 UNK         0.3017 
     76 H76        27.4379   20.0741    2.3138 H         1 UNK         0.0873 
     77 H77        28.2640   21.3117    0.2734 H         1 UNK         0.0745 
     78 H78        29.1098   19.8391    0.6074 H         1 UNK         0.0745 
     79 H79        29.5223   23.3576   -0.4738 H         1 UNK         0.0705 
     80 H80        29.3835   23.8034    1.2110 H         1 UNK         0.0705 
     81 H81        31.7497   24.1907    2.4517 H         1 UNK         0.1334 
     82 H82        34.3403   26.6804    0.1037 H         1 UNK         0.1417 
     83 H83        31.0665   24.6295   -1.7555 H         1 UNK         0.1562 
     84 H84        32.6229   25.7996   -3.1294 H         1 UNK         0.0748 
     85 H85        34.2044   26.1383   -2.4782 H         1 UNK         0.0748 
     86 H86        30.6470   27.3236   -1.6794 H         1 UNK         0.0940 
     87 H87        30.5765   28.0293   -3.2690 H         1 UNK         0.0940 
     88 H88        30.8155   30.3271   -2.2539 H         1 UNK         0.0703 
     89 H89        28.5763   28.6702   -2.1123 H         1 UNK         0.3081 
     90 H90        26.1568   30.5491   -0.5172 H         1 UNK         0.0719 
     91 H91        26.4973   30.3840   -3.5608 H         1 UNK         0.0809 
     92 H92        24.9749   30.6151   -2.6995 H         1 UNK         0.0809 
     93 H93        26.2165   31.8539   -2.6385 H         1 UNK         0.0809 
     94 H94        26.1294   28.2764   -2.3093 H         1 UNK         0.2990 
     95 H95        25.5041   26.1665   -1.1875 H         1 UNK         0.0690 
     96 H96        27.7261   26.3672   -2.3958 H         1 UNK         0.0788 
     97 H97        27.5858   24.7958   -1.6421 H         1 UNK         0.0788 
     98 H98        28.5778   26.0411   -0.8897 H         1 UNK         0.0788 
     99 H99        26.5662   26.2882    1.4393 H         1 UNK         0.2993 
    100 H100       26.7723   24.5408    2.8797 H         1 UNK         0.0949 
    101 H101       24.7599   23.4948    3.9690 H         1 UNK         0.0767 
    102 H102       24.3018   24.8842    2.9958 H         1 UNK         0.0767 
    103 H103       24.0165   23.2577    2.3880 H         1 UNK         0.0767 
    104 H104       26.2390   21.9552    1.5220 H         1 UNK         0.3013 
    105 H105       32.5835   30.6565   -0.8968 H         1 UNK         0.3121 
    106 H106       33.6266   31.3258    0.9466 H         1 UNK         0.0774 
    107 H107       33.8548   29.6968    2.8156 H         1 UNK         0.0815 
    108 H108       32.4983   28.7676    2.2007 H         1 UNK         0.0815 
    109 H109       33.9841   28.8868    1.2636 H         1 UNK         0.0815 
    110 H110       31.3356   32.6824    0.5209 H         1 UNK         0.2987 
    111 H111       29.8505   34.1191    1.3544 H         1 UNK         0.0949 
    112 H112       31.5472   33.9808    3.9064 H         1 UNK         0.0806 
    113 H113       31.8633   35.0195    2.5179 H         1 UNK         0.0806 
    114 H114       30.4183   35.2593    3.4862 H         1 UNK         0.0806 
    115 H115       28.6592   31.8810    1.1503 H         1 UNK         0.3010 
    116 H116       26.9823   30.5787    1.7053 H         1 UNK         0.0829 
    117 H117       25.7899   32.6591    2.3792 H         1 UNK         0.0813 
    118 H118       25.2763   31.2723    3.3260 H         1 UNK         0.0813 
    119 H119       26.3593   32.4566    4.0363 H         1 UNK         0.0813 
    120 H120       29.2885   29.5193    2.2667 H         1 UNK         0.3038 
    121 H121       30.4160   27.9700    3.2901 H         1 UNK         0.0769 
    122 H122       27.7398   27.1280    4.5104 H         1 UNK         0.0811 
    123 H123       29.1612   26.1090    4.3185 H         1 UNK         0.0811 
    124 H124       28.3203   26.7033    2.8982 H         1 UNK         0.0811 
    125 H125       30.7941   30.3671    4.5606 H         1 UNK         0.3204 
    126 H126       31.0276   29.7845    7.4742 H         1 UNK         0.0748 
    127 H127       31.7234   32.1625    7.6040 H         1 UNK         0.0771 
    128 H128       31.5933   32.3278    5.8569 H         1 UNK         0.0771 
    129 H129       30.1532   32.0326    6.8238 H         1 UNK         0.0771 
    130 H130       32.3284   27.9285    6.3124 H         1 UNK         0.2980 
    131 H131       34.8131   28.5311    5.0924 H         1 UNK         0.0545 
    132 H132       34.2197   28.5728    8.4963 H         1 UNK         0.3459 
    133 H133       35.8832   28.3479    8.9783 H         1 UNK         0.3459 
    134 H134       35.1515   26.0852    5.0302 H         1 UNK         0.0616 
    135 H135       33.8712   25.8404    6.1890 H         1 UNK         0.0616 
    136 H136       34.7580   26.4876    2.4374 H         1 UNK         0.0634 
    137 H137       34.4699   24.8420    2.9656 H         1 UNK         0.0634 
@<TRIPOS>BOND
     1    1    2 1    
     2    1   72 1    
     3    1   73 1    
     4    1   74 1    
     5    2    3 2    
     6    2    4 am   BACKBONE|DICT|INTERRES
     7    4    5 1    
     8    4   75 1    
     9    5    6 1    
    10    5   35 1    
    11    5   76 1    
    12    6    7 1    
    13    6   77 1    
    14    6   78 1    
    15    7    8 1    
    16    8    9 1    
    17    8   79 1    
    18    8   80 1    
    19    9   10 ar   
    20    9   14 ar   
    21   10   11 ar   
    22   10   81 1    
    23   11   12 ar   
    24   11   71 1    
    25   12   13 ar   
    26   12   82 1    
    27   13   14 ar   
    28   13   15 1    
    29   14   83 1    
    30   15   16 1    
    31   15   84 1    
    32   15   85 1    
    33   16   17 1    
    34   17   18 1    
    35   17   86 1    
    36   17   87 1    
    37   18   19 1    
    38   18   37 1    
    39   18   88 1    
    40   19   20 am   BACKBONE|DICT|INTERRES
    41   19   89 1    
    42   20   21 2    
    43   20   22 1    
    44   22   23 1    
    45   22   24 1    
    46   22   90 1    
    47   23   91 1    
    48   23   92 1    
    49   23   93 1    
    50   24   25 am   BACKBONE|DICT|INTERRES
    51   24   94 1    
    52   25   26 2    
    53   25   27 1    
    54   27   28 1    
    55   27   29 1    
    56   27   95 1    
    57   28   96 1    
    58   28   97 1    
    59   28   98 1    
    60   29   30 am   BACKBONE|DICT|INTERRES
    61   29   99 1    
    62   30   31 2    
    63   30   32 1    
    64   32   33 1    
    65   32   34 1    
    66   32  100 1    
    67   33  101 1    
    68   33  102 1    
    69   33  103 1    
    70   34   35 am   BACKBONE|DICT|INTERRES
    71   34  104 1    
    72   35   36 2    
    73   37   38 2    
    74   37   39 am   BACKBONE|DICT|INTERRES
    75   39   40 1    
    76   39  105 1    
    77   40   41 1    
    78   40   42 1    
    79   40  106 1    
    80   41  107 1    
    81   41  108 1    
    82   41  109 1    
    83   42   43 2    
    84   42   44 am   BACKBONE|DICT|INTERRES
    85   44   45 1    
    86   44  110 1    
    87   45   46 1    
    88   45   47 1    
    89   45  111 1    
    90   46  112 1    
    91   46  113 1    
    92   46  114 1    
    93   47   48 2    
    94   47   49 am   BACKBONE|DICT|INTERRES
    95   49   50 1    
    96   49  115 1    
    97   50   51 1    
    98   50   52 1    
    99   50  116 1    
   100   51  117 1    
   101   51  118 1    
   102   51  119 1    
   103   52   53 2    
   104   52   54 am   BACKBONE|DICT|INTERRES
   105   54   55 1    
   106   54  120 1    
   107   55   56 1    
   108   55   57 1    
   109   55  121 1    
   110   56  122 1    
   111   56  123 1    
   112   56  124 1    
   113   57   58 2    
   114   57   59 am   BACKBONE|DICT|INTERRES
   115   59   60 1    
   116   59  125 1    
   117   60   61 1    
   118   60   62 1    
   119   60  126 1    
   120   61  127 1    
   121   61  128 1    
   122   61  129 1    
   123   62   63 2    
   124   62   64 am   BACKBONE|DICT|INTERRES
   125   64   65 1    
   126   64  130 1    
   127   65   66 1    
   128   65   69 1    
   129   65  131 1    
   130   66   67 am   BACKBONE|DICT|INTERRES
   131   66   68 2    
   132   67  132 1    
   133   67  133 1    
   134   69   70 1    
   135   69  134 1    
   136   69  135 1    
   137   70   71 1    
   138   71  136 1    
   139   71  137 1    
@<TRIPOS>SUBSTRUCTURE
     1 UNK         1 GROUP             0       ****    0 ROOT    
