@<TRIPOS>MOLECULE
3R136
137   139    1
SMALL
USER_CHARGES


@<TRIPOS>ATOM
      1 CA         27.4824   23.2106   -2.4152 C.3       0 UNK        -0.1979 
      2 C          27.9158   23.3905   -0.9697 C.2       0 UNK         0.4864 
      3 O          27.5083   24.3616   -0.3300 O.2       0 UNK        -0.5359 
      4 N          28.7286   22.4603   -0.4473 N.am      1 UNK        -0.4318 
      5 CA         29.3411   22.4958    0.8900 C.3       1 UNK         0.0824 
      6 C6         30.2591   21.2735    1.1492 C.3       12 UNK        -0.0944 
      7 S7         31.5448   21.0590   -0.1287 S.3       12 UNK        -0.2672 
      8 C8         33.0012   21.8013    0.6774 C.3       12 UNK         0.0333 
      9 C9         32.8023   23.2858    0.9470 C.ar      12 UNK        -0.0807 
     10 C10        32.7198   23.7645    2.2577 C.ar      12 UNK        -0.0894 
     11 C11        32.5140   25.1254    2.5049 C.ar      12 UNK        -0.0804 
     12 C12        32.3791   26.0082    1.4279 C.ar      12 UNK        -0.0824 
     13 C13        32.4622   25.5403    0.1117 C.ar      12 UNK        -0.0762 
     14 C14        32.6894   24.1807   -0.1197 C.ar      12 UNK        -0.0782 
     15 C15        32.3322   26.5012   -1.0618 C.3       12 UNK         0.0230 
     16 S16        30.9649   26.0350   -2.1805 S.3       12 UNK        -0.2608 
     17 C17        30.0097   27.5871   -2.2969 C.3       12 UNK        -0.0989 
     18 CA         28.5929   27.4848   -1.6654 C.3       5 UNK         0.0716 
     19 N          28.6021   26.9473   -0.2975 N.am      5 UNK        -0.4135 
     20 C          29.1322   27.5204    0.7925 C.2       4 UNK         0.5031 
     21 O          29.7172   28.6030    0.7706 O.2       4 UNK        -0.5229 
     22 CA         28.9006   26.7952    2.1355 C.3       4 UNK         0.0329 
     23 CB         29.1203   27.7149    3.3525 C.3       4 UNK        -0.2001 
     24 N          27.5896   26.1395    2.2216 N.am      4 UNK        -0.4303 
     25 C          26.3843   26.6905    1.9970 C.2       3 UNK         0.5044 
     26 O          26.2200   27.8874    1.7551 O.2       3 UNK        -0.5152 
     27 CA         25.1653   25.7495    1.9626 C.3       3 UNK         0.0319 
     28 CB         24.3162   26.0036    0.7034 C.3       3 UNK        -0.2001 
     29 N          25.5726   24.3430    1.9657 N.am      3 UNK        -0.4354 
     30 C          25.4157   23.4904    2.9872 C.2       2 UNK         0.4964 
     31 O          24.8343   23.7742    4.0348 O.2       2 UNK        -0.5047 
     32 CA         26.0207   22.0816    2.8274 C.3       2 UNK         0.0288 
     33 CB         24.9380   21.0802    2.3931 C.3       2 UNK        -0.2113 
     34 N          27.1426   22.0120    1.8843 N.am      2 UNK        -0.4145 
     35 C          28.3200   22.6375    2.0370 C.2       1 UNK         0.5006 
     36 O          28.5953   23.3437    3.0074 O.2       1 UNK        -0.5103 
     37 C          27.8243   28.8252   -1.7944 C.2       5 UNK         0.5055 
     38 O          28.0231   29.5348   -2.7821 O.2       5 UNK        -0.5220 
     39 N          26.9921   29.1695   -0.7955 N.am      6 UNK        -0.4450 
     40 CA         26.3552   30.4754   -0.5800 C.3       6 UNK         0.0367 
     41 CB         25.3411   30.8000   -1.6976 C.3       6 UNK        -0.1929 
     42 C          27.3677   31.6177   -0.3332 C.2       6 UNK         0.5070 
     43 O          27.0347   32.7838   -0.5500 O.2       6 UNK        -0.5237 
     44 N          28.5758   31.2743    0.1321 N.am      7 UNK        -0.4739 
     45 CA         29.6676   32.1890    0.4534 C.3       7 UNK         0.0276 
     46 CB         30.7090   32.1491   -0.6808 C.3       7 UNK        -0.1927 
     47 C          30.2386   31.7561    1.8091 C.2       7 UNK         0.5013 
     48 O          31.3582   31.2471    1.8816 O.2       7 UNK        -0.5193 
     49 N          29.4144   31.9049    2.8542 N.am      8 UNK        -0.4253 
     50 CA         29.6309   31.3868    4.2064 C.3       8 UNK         0.0242 
     51 CB         28.2820   31.3737    4.9505 C.3       8 UNK        -0.2000 
     52 C          30.7401   32.1072    4.9991 C.2       8 UNK         0.4948 
     53 O          30.4648   32.7029    6.0421 O.2       8 UNK        -0.5275 
     54 N          31.9820   31.9979    4.5192 N.am      9 UNK        -0.4246 
     55 CA         33.2040   32.3963    5.2094 C.3       9 UNK         0.0261 
     56 CB         33.4302   33.9135    5.0766 C.3       9 UNK        -0.1959 
     57 C          34.3770   31.6116    4.5941 C.2       9 UNK         0.5033 
     58 O          34.4316   31.5130    3.3689 O.2       9 UNK        -0.5390 
     59 N          35.3293   31.0793    5.3746 N.am      10 UNK        -0.4215 
     60 CA         35.3533   30.9956    6.8393 C.3       10 UNK         0.0240 
     61 CB         36.8005   30.7599    7.3015 C.3       10 UNK        -0.1982 
     62 C          34.4387   29.8837    7.3889 C.2       10 UNK         0.4970 
     63 O          33.9544   30.0116    8.5127 O.2       10 UNK        -0.4916 
     64 N          34.2201   28.8249    6.5971 N.am      11 UNK        -0.4279 
     65 CA         33.4095   27.6483    6.9551 C.3       11 UNK         0.1003 
     66 C          31.8680   27.8314    6.8374 C.2       11 UNK         0.5709 
     67 N          31.3640   28.9716    6.3857 N.am      11 UNK        -0.7358 
     68 O          31.1129   26.9253    7.1799 O.2       11 UNK        -0.4999 
     69 C69        33.9140   26.3678    6.2367 C.3       12 UNK        -0.0954 
     70 S70        33.9744   26.4851    4.4141 S.3       12 UNK        -0.2268 
     71 C71        32.4375   25.6350    3.9367 C.3       12 UNK         0.0203 
     72 H72        26.3950   23.1934   -2.4811 H         1 UNK         0.0888 
     73 H73        27.8486   24.0411   -3.0181 H         1 UNK         0.0888 
     74 H74        27.8648   22.2844   -2.8437 H         1 UNK         0.0888 
     75 H75        29.0356   21.6948   -1.0310 H         1 UNK         0.3017 
     76 H76        29.9576   23.3965    0.9177 H         1 UNK         0.0873 
     77 H77        30.7408   21.3541    2.1259 H         1 UNK         0.0745 
     78 H78        29.6699   20.3550    1.1805 H         1 UNK         0.0745 
     79 H79        33.2186   21.2593    1.5991 H         1 UNK         0.0705 
     80 H80        33.8697   21.6682    0.0309 H         1 UNK         0.0705 
     81 H81        32.8146   23.0771    3.0873 H         1 UNK         0.1334 
     82 H82        32.2176   27.0611    1.6187 H         1 UNK         0.1417 
     83 H83        32.7534   23.8131   -1.1352 H         1 UNK         0.1562 
     84 H84        33.2645   26.4989   -1.6279 H         1 UNK         0.0748 
     85 H85        32.2037   27.5203   -0.6956 H         1 UNK         0.0748 
     86 H86        29.9290   27.8293   -3.3583 H         1 UNK         0.0940 
     87 H87        30.5658   28.4139   -1.8527 H         1 UNK         0.0940 
     88 H88        28.0228   26.7639   -2.2532 H         1 UNK         0.0703 
     89 H89        28.1481   26.0403   -0.1922 H         1 UNK         0.3081 
     90 H90        29.6394   25.9950    2.1815 H         1 UNK         0.0719 
     91 H91        30.1279   28.1318    3.3468 H         1 UNK         0.0809 
     92 H92        28.4186   28.5494    3.3544 H         1 UNK         0.0809 
     93 H93        29.0011   27.1709    4.2895 H         1 UNK         0.0809 
     94 H94        27.6241   25.1465    2.4200 H         1 UNK         0.2990 
     95 H95        24.5580   25.9792    2.8402 H         1 UNK         0.0690 
     96 H96        23.4487   25.3442    0.6719 H         1 UNK         0.0788 
     97 H97        24.8927   25.8430   -0.2089 H         1 UNK         0.0788 
     98 H98        23.9420   27.0280    0.6784 H         1 UNK         0.0788 
     99 H99        26.0945   24.0412    1.1489 H         1 UNK         0.2993 
    100 H100       26.3948   21.7801    3.8083 H         1 UNK         0.0949 
    101 H101       24.0993   21.0845    3.0909 H         1 UNK         0.0767 
    102 H102       24.5411   21.3179    1.4052 H         1 UNK         0.0767 
    103 H103       25.3266   20.0619    2.3643 H         1 UNK         0.0767 
    104 H104       26.9991   21.4666    1.0465 H         1 UNK         0.3013 
    105 H105       26.8859   28.5259   -0.0160 H         1 UNK         0.3121 
    106 H106       25.7927   30.3764    0.3496 H         1 UNK         0.0774 
    107 H107       25.8342   31.0047   -2.6481 H         1 UNK         0.0815 
    108 H108       24.7513   31.6817   -1.4446 H         1 UNK         0.0815 
    109 H109       24.6422   29.9778   -1.8505 H         1 UNK         0.0815 
    110 H110       28.7793   30.2935    0.3129 H         1 UNK         0.2987 
    111 H111       29.3021   33.2129    0.5585 H         1 UNK         0.0949 
    112 H112       31.1007   31.1419   -0.8310 H         1 UNK         0.0806 
    113 H113       30.2778   32.4832   -1.6245 H         1 UNK         0.0806 
    114 H114       31.5545   32.8012   -0.4582 H         1 UNK         0.0806 
    115 H115       28.5211   32.3453    2.6878 H         1 UNK         0.3010 
    116 H116       29.9573   30.3512    4.1096 H         1 UNK         0.0829 
    117 H117       28.3888   30.9490    5.9496 H         1 UNK         0.0813 
    118 H118       27.8753   32.3791    5.0660 H         1 UNK         0.0813 
    119 H119       27.5423   30.7701    4.4238 H         1 UNK         0.0813 
    120 H120       32.1163   31.5527    3.6107 H         1 UNK         0.3038 
    121 H121       33.0779   32.1511    6.2630 H         1 UNK         0.0769 
    122 H122       33.5134   34.2168    4.0321 H         1 UNK         0.0811 
    123 H123       34.3494   34.2155    5.5802 H         1 UNK         0.0811 
    124 H124       32.6145   34.4805    5.5253 H         1 UNK         0.0811 
    125 H125       36.1010   30.6262    4.9067 H         1 UNK         0.3204 
    126 H126       35.0328   31.9485    7.2639 H         1 UNK         0.0748 
    127 H127       36.8610   30.7188    8.3902 H         1 UNK         0.0771 
    128 H128       37.2029   29.8212    6.9179 H         1 UNK         0.0771 
    129 H129       37.4579   31.5657    6.9738 H         1 UNK         0.0771 
    130 H130       34.6374   28.8010    5.6784 H         1 UNK         0.2980 
    131 H131       33.5724   27.4717    8.0200 H         1 UNK         0.0545 
    132 H132       30.3636   29.0748    6.3486 H         1 UNK         0.3459 
    133 H133       31.9718   29.7305    6.1323 H         1 UNK         0.3459 
    134 H134       34.9302   26.1556    6.5720 H         1 UNK         0.0616 
    135 H135       33.3318   25.4953    6.5376 H         1 UNK         0.0616 
    136 H136       31.5978   26.3207    4.0469 H         1 UNK         0.0634 
    137 H137       32.2457   24.8041    4.6171 H         1 UNK         0.0634 
@<TRIPOS>BOND
     1    1    2 1    
     2    1   72 1    
     3    1   73 1    
     4    1   74 1    
     5    2    3 2    
     6    2    4 am   BACKBONE|DICT|INTERRES
     7    4    5 1    
     8    4   75 1    
     9    5    6 1    
    10    5   35 1    
    11    5   76 1    
    12    6    7 1    
    13    6   77 1    
    14    6   78 1    
    15    7    8 1    
    16    8    9 1    
    17    8   79 1    
    18    8   80 1    
    19    9   10 ar   
    20    9   14 ar   
    21   10   11 ar   
    22   10   81 1    
    23   11   12 ar   
    24   11   71 1    
    25   12   13 ar   
    26   12   82 1    
    27   13   14 ar   
    28   13   15 1    
    29   14   83 1    
    30   15   16 1    
    31   15   84 1    
    32   15   85 1    
    33   16   17 1    
    34   17   18 1    
    35   17   86 1    
    36   17   87 1    
    37   18   19 1    
    38   18   37 1    
    39   18   88 1    
    40   19   20 am   BACKBONE|DICT|INTERRES
    41   19   89 1    
    42   20   21 2    
    43   20   22 1    
    44   22   23 1    
    45   22   24 1    
    46   22   90 1    
    47   23   91 1    
    48   23   92 1    
    49   23   93 1    
    50   24   25 am   BACKBONE|DICT|INTERRES
    51   24   94 1    
    52   25   26 2    
    53   25   27 1    
    54   27   28 1    
    55   27   29 1    
    56   27   95 1    
    57   28   96 1    
    58   28   97 1    
    59   28   98 1    
    60   29   30 am   BACKBONE|DICT|INTERRES
    61   29   99 1    
    62   30   31 2    
    63   30   32 1    
    64   32   33 1    
    65   32   34 1    
    66   32  100 1    
    67   33  101 1    
    68   33  102 1    
    69   33  103 1    
    70   34   35 am   BACKBONE|DICT|INTERRES
    71   34  104 1    
    72   35   36 2    
    73   37   38 2    
    74   37   39 am   BACKBONE|DICT|INTERRES
    75   39   40 1    
    76   39  105 1    
    77   40   41 1    
    78   40   42 1    
    79   40  106 1    
    80   41  107 1    
    81   41  108 1    
    82   41  109 1    
    83   42   43 2    
    84   42   44 am   BACKBONE|DICT|INTERRES
    85   44   45 1    
    86   44  110 1    
    87   45   46 1    
    88   45   47 1    
    89   45  111 1    
    90   46  112 1    
    91   46  113 1    
    92   46  114 1    
    93   47   48 2    
    94   47   49 am   BACKBONE|DICT|INTERRES
    95   49   50 1    
    96   49  115 1    
    97   50   51 1    
    98   50   52 1    
    99   50  116 1    
   100   51  117 1    
   101   51  118 1    
   102   51  119 1    
   103   52   53 2    
   104   52   54 am   BACKBONE|DICT|INTERRES
   105   54   55 1    
   106   54  120 1    
   107   55   56 1    
   108   55   57 1    
   109   55  121 1    
   110   56  122 1    
   111   56  123 1    
   112   56  124 1    
   113   57   58 2    
   114   57   59 am   BACKBONE|DICT|INTERRES
   115   59   60 1    
   116   59  125 1    
   117   60   61 1    
   118   60   62 1    
   119   60  126 1    
   120   61  127 1    
   121   61  128 1    
   122   61  129 1    
   123   62   63 2    
   124   62   64 am   BACKBONE|DICT|INTERRES
   125   64   65 1    
   126   64  130 1    
   127   65   66 1    
   128   65   69 1    
   129   65  131 1    
   130   66   67 am   BACKBONE|DICT|INTERRES
   131   66   68 2    
   132   67  132 1    
   133   67  133 1    
   134   69   70 1    
   135   69  134 1    
   136   69  135 1    
   137   70   71 1    
   138   71  136 1    
   139   71  137 1    
@<TRIPOS>SUBSTRUCTURE
     1 UNK         1 GROUP             0       ****    0 ROOT    
