@<TRIPOS>MOLECULE
3R136
137   139    1
SMALL
USER_CHARGES


@<TRIPOS>ATOM
      1 CA         25.8871   21.2123    3.1924 C.3       0 UNK        -0.1979 
      2 C          26.2994   21.1021    1.7318 C.2       0 UNK         0.4864 
      3 O          25.5383   20.5753    0.9182 O.2       0 UNK        -0.5359 
      4 N          27.5010   21.5878    1.3977 N.am      1 UNK        -0.4318 
      5 CA         28.0308   21.6607    0.0333 C.3       1 UNK         0.0824 
      6 C6         29.5828   21.7182    0.0206 C.3       12 UNK        -0.0944 
      7 S7         30.3214   23.0093    1.0870 S.3       12 UNK        -0.2672 
      8 C8         31.0800   21.9722    2.3789 C.3       12 UNK         0.0333 
      9 C9         31.8714   22.8023    3.3779 C.ar      12 UNK        -0.0807 
     10 C10        33.2665   22.8708    3.2930 C.ar      12 UNK        -0.0894 
     11 C11        33.9981   23.6199    4.2206 C.ar      12 UNK        -0.0804 
     12 C12        33.3225   24.2993    5.2384 C.ar      12 UNK        -0.0824 
     13 C13        31.9288   24.2711    5.3085 C.ar      12 UNK        -0.0762 
     14 C14        31.2078   23.5007    4.3912 C.ar      12 UNK        -0.0782 
     15 C15        31.2149   25.1137    6.3521 C.3       12 UNK         0.0230 
     16 S16        31.0265   26.8306    5.7725 S.3       12 UNK        -0.2608 
     17 C17        29.5825   26.6502    4.6731 C.3       12 UNK        -0.0989 
     18 CA         29.3097   27.9023    3.8022 C.3       5 UNK         0.0716 
     19 N          28.4747   27.6279    2.6300 N.am      5 UNK        -0.4135 
     20 C          27.2916   27.0014    2.5800 C.2       4 UNK         0.5031 
     21 O          26.7406   26.4664    3.5428 O.2       4 UNK        -0.5229 
     22 CA         26.5991   26.9348    1.2088 C.3       4 UNK         0.0329 
     23 CB         25.8086   28.2275    0.9207 C.3       4 UNK        -0.2001 
     24 N          27.4836   26.5723    0.0923 N.am      4 UNK        -0.4303 
     25 C          28.4681   27.2856   -0.4779 C.2       3 UNK         0.5044 
     26 O          28.8227   28.3925   -0.0699 O.2       3 UNK        -0.5152 
     27 CA         29.2114   26.6658   -1.6808 C.3       3 UNK         0.0319 
     28 CB         30.6992   26.4688   -1.3554 C.3       3 UNK        -0.2001 
     29 N          28.6592   25.3837   -2.1227 N.am      3 UNK        -0.4354 
     30 C          27.5266   25.2268   -2.8221 C.2       2 UNK         0.4964 
     31 O          26.8634   26.1643   -3.2659 O.2       2 UNK        -0.5047 
     32 CA         27.0281   23.7837   -3.0402 C.3       2 UNK         0.0288 
     33 CB         27.3414   23.3202   -4.4725 C.3       2 UNK        -0.2113 
     34 N          27.5558   22.7928   -2.0902 N.am      2 UNK        -0.4145 
     35 C          27.3931   22.8231   -0.7582 C.2       1 UNK         0.5006 
     36 O          26.8040   23.7335   -0.1679 O.2       1 UNK        -0.5103 
     37 C          28.7492   29.0791    4.6269 C.2       5 UNK         0.5055 
     38 O          27.5496   29.1383    4.9054 O.2       5 UNK        -0.5220 
     39 N          29.6423   30.0064    4.9953 N.am      6 UNK        -0.4450 
     40 CA         29.4555   31.2119    5.8161 C.3       6 UNK         0.0367 
     41 CB         28.9192   30.8692    7.2192 C.3       6 UNK        -0.1929 
     42 C          28.6152   32.3149    5.1493 C.2       6 UNK         0.5070 
     43 O          28.9835   33.4851    5.2463 O.2       6 UNK        -0.5237 
     44 N          27.5255   31.9349    4.4701 N.am      7 UNK        -0.4739 
     45 CA         26.6588   32.8225    3.6896 C.3       7 UNK         0.0276 
     46 CB         25.4027   32.0522    3.2506 C.3       7 UNK        -0.1927 
     47 C          27.3789   33.4294    2.4733 C.2       7 UNK         0.5013 
     48 O          27.1788   34.6077    2.1760 O.2       7 UNK        -0.5193 
     49 N          28.2149   32.6158    1.8150 N.am      8 UNK        -0.4253 
     50 CA         29.1285   33.0423    0.7567 C.3       8 UNK         0.0242 
     51 CB         29.2798   31.9183   -0.2849 C.3       8 UNK        -0.2000 
     52 C          30.4811   33.4339    1.3690 C.2       8 UNK         0.4948 
     53 O          30.8887   34.5910    1.2623 O.2       8 UNK        -0.5275 
     54 N          31.1339   32.4608    2.0142 N.am      9 UNK        -0.4246 
     55 CA         32.4268   32.5458    2.6870 C.3       9 UNK         0.0261 
     56 CB         33.5583   32.7594    1.6594 C.3       9 UNK        -0.1959 
     57 C          32.6312   31.2278    3.4450 C.2       9 UNK         0.5033 
     58 O          31.8440   30.2908    3.2631 O.2       9 UNK        -0.5390 
     59 N          33.6898   31.1456    4.2604 N.am      10 UNK        -0.4215 
     60 CA         34.1377   29.8967    4.8854 C.3       10 UNK         0.0240 
     61 CB         35.2886   30.1879    5.8624 C.3       10 UNK        -0.1982 
     62 C          34.5664   28.8902    3.8026 C.2       10 UNK         0.4970 
     63 O          35.4563   29.2061    3.0099 O.2       10 UNK        -0.4916 
     64 N          33.8831   27.7406    3.7620 N.am      11 UNK        -0.4279 
     65 CA         33.9560   26.7348    2.6871 C.3       11 UNK         0.1003 
     66 C          33.3600   27.2096    1.3262 C.2       11 UNK         0.5709 
     67 N          32.5682   28.2763    1.2787 N.am      11 UNK        -0.7358 
     68 O          33.5980   26.5883    0.2936 O.2       11 UNK        -0.4999 
     69 C69        35.3586   26.0686    2.5228 C.3       12 UNK        -0.0954 
     70 S70        36.0914   25.4539    4.0783 S.3       12 UNK        -0.2268 
     71 C71        35.5140   23.7230    4.1087 C.3       12 UNK         0.0203 
     72 H72        25.6918   20.2222    3.6035 H         1 UNK         0.0888 
     73 H73        26.6589   21.6854    3.7995 H         1 UNK         0.0888 
     74 H74        24.9768   21.8046    3.2806 H         1 UNK         0.0888 
     75 H75        28.0634   22.0525    2.0953 H         1 UNK         0.3017 
     76 H76        27.7381   20.7429   -0.4820 H         1 UNK         0.0873 
     77 H77        29.9682   20.7446    0.3273 H         1 UNK         0.0745 
     78 H78        29.9624   21.8576   -0.9931 H         1 UNK         0.0745 
     79 H79        30.3022   21.4120    2.9001 H         1 UNK         0.0705 
     80 H80        31.7305   21.2317    1.9103 H         1 UNK         0.0705 
     81 H81        33.7816   22.3441    2.5012 H         1 UNK         0.1334 
     82 H82        33.8814   24.8948    5.9475 H         1 UNK         0.1417 
     83 H83        30.1285   23.4637    4.4475 H         1 UNK         0.1562 
     84 H84        31.7881   25.1142    7.2805 H         1 UNK         0.0748 
     85 H85        30.2390   24.6907    6.5957 H         1 UNK         0.0748 
     86 H86        28.7104   26.3893    5.2758 H         1 UNK         0.0940 
     87 H87        29.7627   25.8003    4.0155 H         1 UNK         0.0940 
     88 H88        30.2633   28.2140    3.3750 H         1 UNK         0.0703 
     89 H89        28.7973   28.0325    1.7537 H         1 UNK         0.3081 
     90 H90        25.8745   26.1209    1.2689 H         1 UNK         0.0719 
     91 H91        26.4558   29.1030    0.8626 H         1 UNK         0.0809 
     92 H92        25.0802   28.4191    1.7098 H         1 UNK         0.0809 
     93 H93        25.2587   28.1541   -0.0175 H         1 UNK         0.0809 
     94 H94        27.3236   25.6331   -0.2610 H         1 UNK         0.2990 
     95 H95        29.1351   27.3764   -2.5063 H         1 UNK         0.0690 
     96 H96        31.2409   26.0390   -2.1980 H         1 UNK         0.0788 
     97 H97        30.8435   25.8153   -0.4937 H         1 UNK         0.0788 
     98 H98        31.1744   27.4224   -1.1255 H         1 UNK         0.0788 
     99 H99        29.1385   24.5550   -1.8021 H         1 UNK         0.2993 
    100 H100       25.9431   23.8045   -2.9167 H         1 UNK         0.0949 
    101 H101       26.9011   22.3447   -4.6805 H         1 UNK         0.0767 
    102 H102       26.9363   24.0178   -5.2072 H         1 UNK         0.0767 
    103 H103       28.4158   23.2500   -4.6480 H         1 UNK         0.0767 
    104 H104       28.0565   22.0152   -2.4967 H         1 UNK         0.3013 
    105 H105       30.5750   29.9155    4.5982 H         1 UNK         0.3121 
    106 H106       30.4569   31.6260    5.9465 H         1 UNK         0.0774 
    107 H107       28.8959   31.7569    7.8525 H         1 UNK         0.0815 
    108 H108       27.9046   30.4716    7.1846 H         1 UNK         0.0815 
    109 H109       29.5514   30.1327    7.7153 H         1 UNK         0.0815 
    110 H110       27.2899   30.9449    4.4949 H         1 UNK         0.2987 
    111 H111       26.3506   33.6465    4.3369 H         1 UNK         0.0949 
    112 H112       25.6505   31.1938    2.6248 H         1 UNK         0.0806 
    113 H113       24.8414   31.6874    4.1110 H         1 UNK         0.0806 
    114 H114       24.7328   32.6934    2.6759 H         1 UNK         0.0806 
    115 H115       28.3050   31.6679    2.1476 H         1 UNK         0.3010 
    116 H116       28.7221   33.9183    0.2459 H         1 UNK         0.0829 
    117 H117       28.3252   31.6903   -0.7595 H         1 UNK         0.0813 
    118 H118       29.9717   32.2111   -1.0756 H         1 UNK         0.0813 
    119 H119       29.6577   30.9935    0.1522 H         1 UNK         0.0813 
    120 H120       30.7298   31.5343    2.0747 H         1 UNK         0.3038 
    121 H121       32.4028   33.3679    3.4049 H         1 UNK         0.0769 
    122 H122       33.4350   33.6930    1.1109 H         1 UNK         0.0811 
    123 H123       33.5951   31.9478    0.9312 H         1 UNK         0.0811 
    124 H124       34.5341   32.8059    2.1438 H         1 UNK         0.0811 
    125 H125       34.3071   31.9404    4.3433 H         1 UNK         0.3204 
    126 H126       33.3026   29.4821    5.4549 H         1 UNK         0.0748 
    127 H127       34.9763   30.8724    6.6514 H         1 UNK         0.0771 
    128 H128       35.6288   29.2707    6.3453 H         1 UNK         0.0771 
    129 H129       36.1490   30.6276    5.3561 H         1 UNK         0.0771 
    130 H130       33.1598   27.5784    4.4485 H         1 UNK         0.2980 
    131 H131       33.2637   25.9544    2.9967 H         1 UNK         0.0545 
    132 H132       32.1921   28.5607    0.3902 H         1 UNK         0.3459 
    133 H133       32.3715   28.8285    2.1056 H         1 UNK         0.3459 
    134 H134       35.3014   25.2343    1.8217 H         1 UNK         0.0616 
    135 H135       36.0629   26.7760    2.0830 H         1 UNK         0.0616 
    136 H136       35.9651   23.2170    4.9630 H         1 UNK         0.0634 
    137 H137       35.8783   23.2115    3.2165 H         1 UNK         0.0634 
@<TRIPOS>BOND
     1    1    2 1    
     2    1   72 1    
     3    1   73 1    
     4    1   74 1    
     5    2    3 2    
     6    2    4 am   BACKBONE|DICT|INTERRES
     7    4    5 1    
     8    4   75 1    
     9    5    6 1    
    10    5   35 1    
    11    5   76 1    
    12    6    7 1    
    13    6   77 1    
    14    6   78 1    
    15    7    8 1    
    16    8    9 1    
    17    8   79 1    
    18    8   80 1    
    19    9   10 ar   
    20    9   14 ar   
    21   10   11 ar   
    22   10   81 1    
    23   11   12 ar   
    24   11   71 1    
    25   12   13 ar   
    26   12   82 1    
    27   13   14 ar   
    28   13   15 1    
    29   14   83 1    
    30   15   16 1    
    31   15   84 1    
    32   15   85 1    
    33   16   17 1    
    34   17   18 1    
    35   17   86 1    
    36   17   87 1    
    37   18   19 1    
    38   18   37 1    
    39   18   88 1    
    40   19   20 am   BACKBONE|DICT|INTERRES
    41   19   89 1    
    42   20   21 2    
    43   20   22 1    
    44   22   23 1    
    45   22   24 1    
    46   22   90 1    
    47   23   91 1    
    48   23   92 1    
    49   23   93 1    
    50   24   25 am   BACKBONE|DICT|INTERRES
    51   24   94 1    
    52   25   26 2    
    53   25   27 1    
    54   27   28 1    
    55   27   29 1    
    56   27   95 1    
    57   28   96 1    
    58   28   97 1    
    59   28   98 1    
    60   29   30 am   BACKBONE|DICT|INTERRES
    61   29   99 1    
    62   30   31 2    
    63   30   32 1    
    64   32   33 1    
    65   32   34 1    
    66   32  100 1    
    67   33  101 1    
    68   33  102 1    
    69   33  103 1    
    70   34   35 am   BACKBONE|DICT|INTERRES
    71   34  104 1    
    72   35   36 2    
    73   37   38 2    
    74   37   39 am   BACKBONE|DICT|INTERRES
    75   39   40 1    
    76   39  105 1    
    77   40   41 1    
    78   40   42 1    
    79   40  106 1    
    80   41  107 1    
    81   41  108 1    
    82   41  109 1    
    83   42   43 2    
    84   42   44 am   BACKBONE|DICT|INTERRES
    85   44   45 1    
    86   44  110 1    
    87   45   46 1    
    88   45   47 1    
    89   45  111 1    
    90   46  112 1    
    91   46  113 1    
    92   46  114 1    
    93   47   48 2    
    94   47   49 am   BACKBONE|DICT|INTERRES
    95   49   50 1    
    96   49  115 1    
    97   50   51 1    
    98   50   52 1    
    99   50  116 1    
   100   51  117 1    
   101   51  118 1    
   102   51  119 1    
   103   52   53 2    
   104   52   54 am   BACKBONE|DICT|INTERRES
   105   54   55 1    
   106   54  120 1    
   107   55   56 1    
   108   55   57 1    
   109   55  121 1    
   110   56  122 1    
   111   56  123 1    
   112   56  124 1    
   113   57   58 2    
   114   57   59 am   BACKBONE|DICT|INTERRES
   115   59   60 1    
   116   59  125 1    
   117   60   61 1    
   118   60   62 1    
   119   60  126 1    
   120   61  127 1    
   121   61  128 1    
   122   61  129 1    
   123   62   63 2    
   124   62   64 am   BACKBONE|DICT|INTERRES
   125   64   65 1    
   126   64  130 1    
   127   65   66 1    
   128   65   69 1    
   129   65  131 1    
   130   66   67 am   BACKBONE|DICT|INTERRES
   131   66   68 2    
   132   67  132 1    
   133   67  133 1    
   134   69   70 1    
   135   69  134 1    
   136   69  135 1    
   137   70   71 1    
   138   71  136 1    
   139   71  137 1    
@<TRIPOS>SUBSTRUCTURE
     1 UNK         1 GROUP             0       ****    0 ROOT    
