@<TRIPOS>MOLECULE
3R136
137   139    1
SMALL
USER_CHARGES


@<TRIPOS>ATOM
      1 CA         26.1126   20.1046    2.9450 C.3       0 UNK        -0.1979 
      2 C          27.1989   20.0625    1.8803 C.2       0 UNK         0.4864 
      3 O          26.9875   19.4800    0.8159 O.2       0 UNK        -0.5359 
      4 N          28.3586   20.6719    2.1635 N.am      1 UNK        -0.4318 
      5 CA         29.5074   20.7753    1.2551 C.3       1 UNK         0.0824 
      6 C6         30.7540   21.2944    2.0133 C.3       12 UNK        -0.0944 
      7 S7         32.3089   21.0925    1.0818 S.3       12 UNK        -0.2672 
      8 C8         33.4915   21.9486    2.1714 C.3       12 UNK         0.0333 
      9 C9         33.1748   23.4314    2.3143 C.ar      12 UNK        -0.0807 
     10 C10        33.4294   24.3109    1.2561 C.ar      12 UNK        -0.0894 
     11 C11        33.1403   25.6728    1.3836 C.ar      12 UNK        -0.0804 
     12 C12        32.6044   26.1520    2.5814 C.ar      12 UNK        -0.0824 
     13 C13        32.3232   25.2817    3.6346 C.ar      12 UNK        -0.0762 
     14 C14        32.6226   23.9229    3.5029 C.ar      12 UNK        -0.0782 
     15 C15        31.6856   25.8213    4.9046 C.3       12 UNK         0.0230 
     16 S16        29.9461   25.3119    5.0851 S.3       12 UNK        -0.2608 
     17 C17        29.1722   25.8659    3.5225 C.3       12 UNK        -0.0989 
     18 CA         29.0863   27.3992    3.2965 C.3       5 UNK         0.0716 
     19 N          28.6058   27.6992    1.9384 N.am      5 UNK        -0.4135 
     20 C          28.5270   28.9280    1.3991 C.2       4 UNK         0.5031 
     21 O          28.9275   29.9419    1.9671 O.2       4 UNK        -0.5229 
     22 CA         27.8146   29.0961    0.0423 C.3       4 UNK         0.0329 
     23 CB         28.8079   29.4254   -1.0815 C.3       4 UNK        -0.2001 
     24 N          26.9924   27.9548   -0.3597 N.am      4 UNK        -0.4303 
     25 C          25.8791   27.5456    0.2646 C.2       3 UNK         0.5044 
     26 O          25.4117   28.0952    1.2623 O.2       3 UNK        -0.5152 
     27 CA         25.2223   26.2657   -0.2846 C.3       3 UNK         0.0319 
     28 CB         24.2092   26.6084   -1.3882 C.3       3 UNK        -0.2001 
     29 N          26.1976   25.2907   -0.7942 N.am      3 UNK        -0.4354 
     30 C          27.1386   24.7116   -0.0366 C.2       2 UNK         0.4964 
     31 O          27.2766   24.9352    1.1681 O.2       2 UNK        -0.5047 
     32 CA         28.1266   23.7755   -0.7343 C.3       2 UNK         0.0288 
     33 CB         29.3276   24.5721   -1.2813 C.3       2 UNK        -0.2113 
     34 N          28.5744   22.8073    0.2592 N.am      2 UNK        -0.4145 
     35 C          29.1815   21.6407    0.0169 C.2       1 UNK         0.5006 
     36 O          29.4551   21.2295   -1.1128 O.2       1 UNK        -0.5103 
     37 C          28.2384   28.1043    4.3823 C.2       5 UNK         0.5055 
     38 O          28.7780   28.5020    5.4159 O.2       5 UNK        -0.5220 
     39 N          26.9346   28.2858    4.1163 N.am      6 UNK        -0.4450 
     40 CA         26.0209   29.0419    4.9742 C.3       6 UNK         0.0367 
     41 CB         24.5721   28.6634    4.6270 C.3       6 UNK        -0.1929 
     42 C          26.2178   30.5663    4.8709 C.2       6 UNK         0.5070 
     43 O          25.8299   31.2784    5.7976 O.2       6 UNK        -0.5237 
     44 N          26.7945   31.0464    3.7595 N.am      7 UNK        -0.4739 
     45 CA         27.0824   32.4617    3.5262 C.3       7 UNK         0.0276 
     46 CB         27.0346   32.7675    2.0193 C.3       7 UNK        -0.1927 
     47 C          28.4352   32.8673    4.1285 C.2       7 UNK         0.5013 
     48 O          28.5130   33.9207    4.7627 O.2       7 UNK        -0.5193 
     49 N          29.4678   32.0349    3.9385 N.am      8 UNK        -0.4253 
     50 CA         30.8115   32.2529    4.4674 C.3       8 UNK         0.0242 
     51 CB         31.5891   33.2130    3.5493 C.3       8 UNK        -0.2000 
     52 C          31.5430   30.9146    4.5899 C.2       8 UNK         0.4948 
     53 O          31.4047   30.0590    3.7150 O.2       8 UNK        -0.5275 
     54 N          32.3753   30.7859    5.6319 N.am      9 UNK        -0.4246 
     55 CA         33.1437   29.5788    5.9663 C.3       9 UNK         0.0261 
     56 CB         33.8908   29.8109    7.2901 C.3       9 UNK        -0.1959 
     57 C          34.1246   29.0967    4.8781 C.2       9 UNK         0.5033 
     58 O          34.4971   27.9239    4.8908 O.2       9 UNK        -0.5390 
     59 N          34.5193   29.9971    3.9694 N.am      10 UNK        -0.4215 
     60 CA         35.3865   29.7255    2.8218 C.3       10 UNK         0.0240 
     61 CB         36.6497   30.5992    2.9425 C.3       10 UNK        -0.1982 
     62 C          34.6650   29.9504    1.4779 C.2       10 UNK         0.4970 
     63 O          35.3454   30.0748    0.4593 O.2       10 UNK        -0.4916 
     64 N          33.3230   30.0116    1.4808 N.am      11 UNK        -0.4279 
     65 CA         32.4572   30.2592    0.3090 C.3       11 UNK         0.1003 
     66 C          32.5653   31.6888   -0.3083 C.2       11 UNK         0.5709 
     67 N          33.2996   32.6246    0.2818 N.am      11 UNK        -0.7358 
     68 O          31.9367   31.9726   -1.3251 O.2       11 UNK        -0.4999 
     69 C69        32.5449   29.1415   -0.7772 C.3       12 UNK        -0.0954 
     70 S70        31.8845   27.5469   -0.1976 S.3       12 UNK        -0.2268 
     71 C71        33.3998   26.6380    0.2384 C.3       12 UNK         0.0203 
     72 H72        26.4296   20.6545    3.8310 H         1 UNK         0.0888 
     73 H73        25.2188   20.5864    2.5497 H         1 UNK         0.0888 
     74 H74        25.8478   19.0928    3.2510 H         1 UNK         0.0888 
     75 H75        28.4689   21.1180    3.0631 H         1 UNK         0.3017 
     76 H76        29.7235   19.7656    0.8983 H         1 UNK         0.0873 
     77 H77        30.8708   20.7512    2.9527 H         1 UNK         0.0745 
     78 H78        30.6226   22.3433    2.2842 H         1 UNK         0.0745 
     79 H79        33.5015   21.4575    3.1458 H         1 UNK         0.0705 
     80 H80        34.4959   21.8329    1.7616 H         1 UNK         0.0705 
     81 H81        33.8453   23.9302    0.3332 H         1 UNK         0.1334 
     82 H82        32.3839   27.2062    2.6823 H         1 UNK         0.1417 
     83 H83        32.4077   23.2484    4.3206 H         1 UNK         0.1562 
     84 H84        31.7329   26.9099    4.9257 H         1 UNK         0.0748 
     85 H85        32.2521   25.4753    5.7702 H         1 UNK         0.0748 
     86 H86        28.1700   25.4354    3.5027 H         1 UNK         0.0940 
     87 H87        29.7069   25.3969    2.6947 H         1 UNK         0.0940 
     88 H88        30.0945   27.8089    3.3629 H         1 UNK         0.0703 
     89 H89        28.2238   26.9163    1.4232 H         1 UNK         0.3081 
     90 H90        27.1473   29.9536    0.1529 H         1 UNK         0.0719 
     91 H91        29.4320   28.5689   -1.3330 H         1 UNK         0.0809 
     92 H92        28.2880   29.7341   -1.9885 H         1 UNK         0.0809 
     93 H93        29.4683   30.2458   -0.7975 H         1 UNK         0.0809 
     94 H94        27.3028   27.4334   -1.1663 H         1 UNK         0.2990 
     95 H95        24.6825   25.7962    0.5407 H         1 UNK         0.0690 
     96 H96        23.6723   25.7208   -1.7236 H         1 UNK         0.0788 
     97 H97        24.6916   27.0585   -2.2568 H         1 UNK         0.0788 
     98 H98        23.4635   27.3175   -1.0255 H         1 UNK         0.0788 
     99 H99        26.1469   25.0646   -1.7778 H         1 UNK         0.2993 
    100 H100       27.6174   23.2511   -1.5456 H         1 UNK         0.0949 
    101 H101       29.0079   25.3250   -2.0025 H         1 UNK         0.0767 
    102 H102       29.8639   25.0888   -0.4835 H         1 UNK         0.0767 
    103 H103       30.0396   23.9221   -1.7900 H         1 UNK         0.0767 
    104 H104       28.3423   23.0654    1.2104 H         1 UNK         0.3013 
    105 H105       26.5588   27.9585    3.2342 H         1 UNK         0.3121 
    106 H106       26.2059   28.7564    6.0121 H         1 UNK         0.0774 
    107 H107       23.8685   29.1694    5.2895 H         1 UNK         0.0815 
    108 H108       24.3148   28.9445    3.6051 H         1 UNK         0.0815 
    109 H109       24.4035   27.5918    4.7340 H         1 UNK         0.0815 
    110 H110       27.1572   30.3951    3.0756 H         1 UNK         0.2987 
    111 H111       26.3096   33.0652    4.0082 H         1 UNK         0.0949 
    112 H112       27.8164   32.2463    1.4671 H         1 UNK         0.0806 
    113 H113       26.0741   32.4863    1.5874 H         1 UNK         0.0806 
    114 H114       27.1710   33.8344    1.8384 H         1 UNK         0.0806 
    115 H115       29.3455   31.1838    3.3903 H         1 UNK         0.3010 
    116 H116       30.7321   32.6923    5.4644 H         1 UNK         0.0829 
    117 H117       31.1241   34.1985    3.5197 H         1 UNK         0.0813 
    118 H118       32.6143   33.3514    3.8945 H         1 UNK         0.0813 
    119 H119       31.6309   32.8358    2.5276 H         1 UNK         0.0813 
    120 H120       32.4515   31.5540    6.2840 H         1 UNK         0.3038 
    121 H121       32.4212   28.7766    6.1245 H         1 UNK         0.0769 
    122 H122       34.6075   30.6294    7.2111 H         1 UNK         0.0811 
    123 H123       33.2011   30.0429    8.1018 H         1 UNK         0.0811 
    124 H124       34.4462   28.9199    7.5869 H         1 UNK         0.0811 
    125 H125       34.1634   30.9380    4.0554 H         1 UNK         0.3204 
    126 H126       35.6995   28.6794    2.8241 H         1 UNK         0.0748 
    127 H127       37.3615   30.3787    2.1458 H         1 UNK         0.0771 
    128 H128       36.4131   31.6623    2.8854 H         1 UNK         0.0771 
    129 H129       37.1638   30.4208    3.8873 H         1 UNK         0.0771 
    130 H130       32.8184   29.9035    2.3559 H         1 UNK         0.2980 
    131 H131       31.4454   30.2336    0.7143 H         1 UNK         0.0545 
    132 H132       33.3439   33.5438   -0.1283 H         1 UNK         0.3459 
    133 H133       33.8375   32.4113    1.1042 H         1 UNK         0.3459 
    134 H134       33.5639   29.0158   -1.1443 H         1 UNK         0.0616 
    135 H135       31.9499   29.4068   -1.6523 H         1 UNK         0.0616 
    136 H136       33.7634   26.1145   -0.6469 H         1 UNK         0.0634 
    137 H137       34.1873   27.3271    0.5388 H         1 UNK         0.0634 
@<TRIPOS>BOND
     1    1    2 1    
     2    1   72 1    
     3    1   73 1    
     4    1   74 1    
     5    2    3 2    
     6    2    4 am   BACKBONE|DICT|INTERRES
     7    4    5 1    
     8    4   75 1    
     9    5    6 1    
    10    5   35 1    
    11    5   76 1    
    12    6    7 1    
    13    6   77 1    
    14    6   78 1    
    15    7    8 1    
    16    8    9 1    
    17    8   79 1    
    18    8   80 1    
    19    9   10 ar   
    20    9   14 ar   
    21   10   11 ar   
    22   10   81 1    
    23   11   12 ar   
    24   11   71 1    
    25   12   13 ar   
    26   12   82 1    
    27   13   14 ar   
    28   13   15 1    
    29   14   83 1    
    30   15   16 1    
    31   15   84 1    
    32   15   85 1    
    33   16   17 1    
    34   17   18 1    
    35   17   86 1    
    36   17   87 1    
    37   18   19 1    
    38   18   37 1    
    39   18   88 1    
    40   19   20 am   BACKBONE|DICT|INTERRES
    41   19   89 1    
    42   20   21 2    
    43   20   22 1    
    44   22   23 1    
    45   22   24 1    
    46   22   90 1    
    47   23   91 1    
    48   23   92 1    
    49   23   93 1    
    50   24   25 am   BACKBONE|DICT|INTERRES
    51   24   94 1    
    52   25   26 2    
    53   25   27 1    
    54   27   28 1    
    55   27   29 1    
    56   27   95 1    
    57   28   96 1    
    58   28   97 1    
    59   28   98 1    
    60   29   30 am   BACKBONE|DICT|INTERRES
    61   29   99 1    
    62   30   31 2    
    63   30   32 1    
    64   32   33 1    
    65   32   34 1    
    66   32  100 1    
    67   33  101 1    
    68   33  102 1    
    69   33  103 1    
    70   34   35 am   BACKBONE|DICT|INTERRES
    71   34  104 1    
    72   35   36 2    
    73   37   38 2    
    74   37   39 am   BACKBONE|DICT|INTERRES
    75   39   40 1    
    76   39  105 1    
    77   40   41 1    
    78   40   42 1    
    79   40  106 1    
    80   41  107 1    
    81   41  108 1    
    82   41  109 1    
    83   42   43 2    
    84   42   44 am   BACKBONE|DICT|INTERRES
    85   44   45 1    
    86   44  110 1    
    87   45   46 1    
    88   45   47 1    
    89   45  111 1    
    90   46  112 1    
    91   46  113 1    
    92   46  114 1    
    93   47   48 2    
    94   47   49 am   BACKBONE|DICT|INTERRES
    95   49   50 1    
    96   49  115 1    
    97   50   51 1    
    98   50   52 1    
    99   50  116 1    
   100   51  117 1    
   101   51  118 1    
   102   51  119 1    
   103   52   53 2    
   104   52   54 am   BACKBONE|DICT|INTERRES
   105   54   55 1    
   106   54  120 1    
   107   55   56 1    
   108   55   57 1    
   109   55  121 1    
   110   56  122 1    
   111   56  123 1    
   112   56  124 1    
   113   57   58 2    
   114   57   59 am   BACKBONE|DICT|INTERRES
   115   59   60 1    
   116   59  125 1    
   117   60   61 1    
   118   60   62 1    
   119   60  126 1    
   120   61  127 1    
   121   61  128 1    
   122   61  129 1    
   123   62   63 2    
   124   62   64 am   BACKBONE|DICT|INTERRES
   125   64   65 1    
   126   64  130 1    
   127   65   66 1    
   128   65   69 1    
   129   65  131 1    
   130   66   67 am   BACKBONE|DICT|INTERRES
   131   66   68 2    
   132   67  132 1    
   133   67  133 1    
   134   69   70 1    
   135   69  134 1    
   136   69  135 1    
   137   70   71 1    
   138   71  136 1    
   139   71  137 1    
@<TRIPOS>SUBSTRUCTURE
     1 UNK         1 GROUP             0       ****    0 ROOT    
