@<TRIPOS>MOLECULE
3R136
137   139    1
SMALL
USER_CHARGES


@<TRIPOS>ATOM
      1 CA         32.2664   22.9548   -3.6752 C.3       0 UNK        -0.1979 
      2 C          31.2493   23.0626   -2.5499 C.2       0 UNK         0.4864 
      3 O          30.6333   24.1154   -2.3840 O.2       0 UNK        -0.5359 
      4 N          31.0518   21.9758   -1.7877 N.am      1 UNK        -0.4318 
      5 CA         30.1464   21.8887   -0.6317 C.3       1 UNK         0.0824 
      6 C6         30.2954   20.5220    0.0841 C.3       12 UNK        -0.0944 
      7 S7         29.5440   20.4783    1.7453 S.3       12 UNK        -0.2672 
      8 C8         30.8153   21.3018    2.7714 C.3       12 UNK         0.0333 
      9 C9         30.2754   22.3601    3.7386 C.ar      12 UNK        -0.0807 
     10 C10        31.1510   23.3398    4.2226 C.ar      12 UNK        -0.0894 
     11 C11        30.7059   24.3152    5.1207 C.ar      12 UNK        -0.0804 
     12 C12        29.3799   24.2982    5.5550 C.ar      12 UNK        -0.0824 
     13 C13        28.4786   23.3663    5.0414 C.ar      12 UNK        -0.0762 
     14 C14        28.9367   22.3853    4.1571 C.ar      12 UNK        -0.0782 
     15 C15        27.0029   23.4345    5.4069 C.3       12 UNK         0.0230 
     16 S16        26.0114   24.0212    3.9927 S.3       12 UNK        -0.2608 
     17 C17        25.8440   25.8215    4.2773 C.3       12 UNK        -0.0989 
     18 CA         27.1620   26.6502    4.2433 C.3       5 UNK         0.0716 
     19 N          28.0488   26.3530    3.1115 N.am      5 UNK        -0.4135 
     20 C          27.7835   26.5388    1.8113 C.2       4 UNK         0.5031 
     21 O          26.7006   26.9449    1.3830 O.2       4 UNK        -0.5229 
     22 CA         28.9440   26.2624    0.8353 C.3       4 UNK         0.0329 
     23 CB         29.9432   25.2054    1.3455 C.3       4 UNK        -0.2001 
     24 N          28.4524   25.8616   -0.4834 N.am      4 UNK        -0.4303 
     25 C          28.2152   26.7030   -1.5014 C.2       3 UNK         0.5044 
     26 O          28.3934   27.9205   -1.4304 O.2       3 UNK        -0.5152 
     27 CA         27.7155   26.1066   -2.8331 C.3       3 UNK         0.0319 
     28 CB         28.5578   26.6134   -4.0183 C.3       3 UNK        -0.2001 
     29 N          27.7567   24.6434   -2.8331 N.am      3 UNK        -0.4354 
     30 C          26.6868   23.8353   -2.8303 C.2       2 UNK         0.4964 
     31 O          25.5247   24.2397   -2.8799 O.2       2 UNK        -0.5047 
     32 CA         26.9389   22.3139   -2.7548 C.3       2 UNK         0.0288 
     33 CB         26.7787   21.6749   -4.1442 C.3       2 UNK        -0.2113 
     34 N          28.2475   21.9396   -2.2075 N.am      2 UNK        -0.4145 
     35 C          28.6754   22.2315   -0.9700 C.2       1 UNK         0.5006 
     36 O          27.9813   22.8219   -0.1414 O.2       1 UNK        -0.5103 
     37 C          26.9249   28.1702    4.3968 C.2       5 UNK         0.5055 
     38 O          25.8080   28.5923    4.7045 O.2       5 UNK        -0.5220 
     39 N          27.9815   28.9675    4.1861 N.am      6 UNK        -0.4450 
     40 CA         27.9694   30.4217    4.2999 C.3       6 UNK         0.0367 
     41 CB         27.6197   31.0504    2.9397 C.3       6 UNK        -0.1929 
     42 C          29.3477   30.8702    4.7907 C.2       6 UNK         0.5070 
     43 O          30.3340   30.6873    4.0723 O.2       6 UNK        -0.5237 
     44 N          29.3990   31.4258    6.0070 N.am      7 UNK        -0.4739 
     45 CA         30.6147   31.9452    6.6385 C.3       7 UNK         0.0276 
     46 CB         30.3093   32.3201    8.0970 C.3       7 UNK        -0.1927 
     47 C          31.1793   33.1543    5.8785 C.2       7 UNK         0.5013 
     48 O          30.4070   34.0158    5.4513 O.2       7 UNK        -0.5193 
     49 N          32.5076   33.1815    5.7084 N.am      8 UNK        -0.4253 
     50 CA         33.3289   34.1676    4.9902 C.3       8 UNK         0.0242 
     51 CB         33.1699   35.5851    5.5744 C.3       8 UNK        -0.2000 
     52 C          33.1280   34.1640    3.4640 C.2       8 UNK         0.4948 
     53 O          34.1109   34.2835    2.7321 O.2       8 UNK        -0.5275 
     54 N          31.8785   34.0094    3.0084 N.am      9 UNK        -0.4246 
     55 CA         31.4956   33.8836    1.6022 C.3       9 UNK         0.0261 
     56 CB         29.9681   33.9913    1.4803 C.3       9 UNK        -0.1959 
     57 C          31.9991   32.5814    0.9567 C.2       9 UNK         0.5033 
     58 O          32.3666   32.6033   -0.2192 O.2       9 UNK        -0.5390 
     59 N          32.0160   31.4857    1.7273 N.am      10 UNK        -0.4215 
     60 CA         32.5166   30.1806    1.3004 C.3       10 UNK         0.0240 
     61 CB         31.3425   29.2821    0.8744 C.3       10 UNK        -0.1982 
     62 C          33.3474   29.5240    2.4081 C.2       10 UNK         0.4970 
     63 O          34.4957   29.1536    2.1619 O.2       10 UNK        -0.4916 
     64 N          32.7532   29.3776    3.5969 N.am      11 UNK        -0.4279 
     65 CA         33.3573   28.7101    4.7552 C.3       11 UNK         0.1003 
     66 C          34.3317   29.6568    5.5000 C.2       11 UNK         0.5709 
     67 N          35.5554   29.2200    5.7614 N.am      11 UNK        -0.7358 
     68 O          33.9695   30.7687    5.8803 O.2       11 UNK        -0.4999 
     69 C69        32.2751   28.1604    5.7183 C.3       12 UNK        -0.0954 
     70 S70        31.1217   27.0168    4.8924 S.3       12 UNK        -0.2268 
     71 C71        31.6318   25.4198    5.6008 C.3       12 UNK         0.0203 
     72 H72        31.7858   23.1476   -4.6339 H         1 UNK         0.0888 
     73 H73        33.0565   23.6920   -3.5359 H         1 UNK         0.0888 
     74 H74        32.7264   21.9677   -3.7175 H         1 UNK         0.0888 
     75 H75        31.5844   21.1405   -1.9869 H         1 UNK         0.3017 
     76 H76        30.4860   22.6587    0.0614 H         1 UNK         0.0873 
     77 H77        31.3501   20.2616    0.1897 H         1 UNK         0.0745 
     78 H78        29.8522   19.7253   -0.5163 H         1 UNK         0.0745 
     79 H79        31.5584   21.7637    2.1199 H         1 UNK         0.0705 
     80 H80        31.3431   20.5396    3.3457 H         1 UNK         0.0705 
     81 H81        32.1810   23.3486    3.8923 H         1 UNK         0.1334 
     82 H82        29.0456   25.0442    6.2620 H         1 UNK         0.1417 
     83 H83        28.2297   21.6581    3.7842 H         1 UNK         0.1562 
     84 H84        26.8348   24.0742    6.2746 H         1 UNK         0.0748 
     85 H85        26.6589   22.4384    5.6890 H         1 UNK         0.0748 
     86 H86        25.3368   25.9641    5.2334 H         1 UNK         0.0940 
     87 H87        25.1528   26.1970    3.5204 H         1 UNK         0.0940 
     88 H88        27.7209   26.3871    5.1371 H         1 UNK         0.0703 
     89 H89        28.9554   25.9833    3.3609 H         1 UNK         0.3081 
     90 H90        29.4903   27.1999    0.7362 H         1 UNK         0.0719 
     91 H91        30.4921   25.5587    2.2185 H         1 UNK         0.0809 
     92 H92        29.4430   24.2758    1.6203 H         1 UNK         0.0809 
     93 H93        30.6897   24.9755    0.5850 H         1 UNK         0.0809 
     94 H94        28.2203   24.8815   -0.5928 H         1 UNK         0.2990 
     95 H95        26.6919   26.4608   -2.9696 H         1 UNK         0.0690 
     96 H96        29.6067   26.3321   -3.9134 H         1 UNK         0.0788 
     97 H97        28.5166   27.7006   -4.0963 H         1 UNK         0.0788 
     98 H98        28.1950   26.2092   -4.9634 H         1 UNK         0.0788 
     99 H99        28.6875   24.2406   -2.7617 H         1 UNK         0.2993 
    100 H100       26.1756   21.8972   -2.0939 H         1 UNK         0.0949 
    101 H101       27.5324   22.0380   -4.8442 H         1 UNK         0.0767 
    102 H102       26.8594   20.5888   -4.0945 H         1 UNK         0.0767 
    103 H103       25.8008   21.9052   -4.5700 H         1 UNK         0.0767 
    104 H104       28.8859   21.4724   -2.8349 H         1 UNK         0.3013 
    105 H105       28.8837   28.5586    3.9818 H         1 UNK         0.3121 
    106 H106       27.2178   30.7298    5.0302 H         1 UNK         0.0774 
    107 H107       27.5717   32.1368    3.0170 H         1 UNK         0.0815 
    108 H108       28.3585   30.8032    2.1758 H         1 UNK         0.0815 
    109 H109       26.6473   30.7093    2.5843 H         1 UNK         0.0815 
    110 H110       28.5382   31.5573    6.5183 H         1 UNK         0.2987 
    111 H111       31.3627   31.1521    6.6382 H         1 UNK         0.0949 
    112 H112       31.2045   32.6881    8.6006 H         1 UNK         0.0806 
    113 H113       29.5536   33.1042    8.1626 H         1 UNK         0.0806 
    114 H114       29.9522   31.4594    8.6628 H         1 UNK         0.0806 
    115 H115       33.0314   32.3622    6.0139 H         1 UNK         0.3010 
    116 H116       34.3611   33.8585    5.1640 H         1 UNK         0.0829 
    117 H117       33.3668   35.5964    6.6463 H         1 UNK         0.0813 
    118 H118       33.8732   36.2763    5.1082 H         1 UNK         0.0813 
    119 H119       32.1695   35.9871    5.4123 H         1 UNK         0.0813 
    120 H120       31.1369   33.9666    3.7031 H         1 UNK         0.3038 
    121 H121       31.9427   34.7181    1.0577 H         1 UNK         0.0769 
    122 H122       29.6054   34.9473    1.8584 H         1 UNK         0.0811 
    123 H123       29.6518   33.9128    0.4391 H         1 UNK         0.0811 
    124 H124       29.4671   33.1989    2.0353 H         1 UNK         0.0811 
    125 H125       31.6595   31.5448    2.6749 H         1 UNK         0.3204 
    126 H126       33.1805   30.3011    0.4415 H         1 UNK         0.0748 
    127 H127       30.8179   29.6981    0.0139 H         1 UNK         0.0771 
    128 H128       31.6943   28.2894    0.5906 H         1 UNK         0.0771 
    129 H129       30.6154   29.1590    1.6779 H         1 UNK         0.0771 
    130 H130       31.8157   29.7459    3.7419 H         1 UNK         0.2980 
    131 H131       33.9262   27.8530    4.3884 H         1 UNK         0.0545 
    132 H132       36.1918   29.8215    6.2601 H         1 UNK         0.3459 
    133 H133       35.8605   28.3082    5.4589 H         1 UNK         0.3459 
    134 H134       32.7406   27.6551    6.5664 H         1 UNK         0.0616 
    135 H135       31.6826   28.9719    6.1393 H         1 UNK         0.0616 
    136 H136       31.5995   25.4728    6.6900 H         1 UNK         0.0634 
    137 H137       32.6665   25.2144    5.3223 H         1 UNK         0.0634 
@<TRIPOS>BOND
     1    1    2 1    
     2    1   72 1    
     3    1   73 1    
     4    1   74 1    
     5    2    3 2    
     6    2    4 am   BACKBONE|DICT|INTERRES
     7    4    5 1    
     8    4   75 1    
     9    5    6 1    
    10    5   35 1    
    11    5   76 1    
    12    6    7 1    
    13    6   77 1    
    14    6   78 1    
    15    7    8 1    
    16    8    9 1    
    17    8   79 1    
    18    8   80 1    
    19    9   10 ar   
    20    9   14 ar   
    21   10   11 ar   
    22   10   81 1    
    23   11   12 ar   
    24   11   71 1    
    25   12   13 ar   
    26   12   82 1    
    27   13   14 ar   
    28   13   15 1    
    29   14   83 1    
    30   15   16 1    
    31   15   84 1    
    32   15   85 1    
    33   16   17 1    
    34   17   18 1    
    35   17   86 1    
    36   17   87 1    
    37   18   19 1    
    38   18   37 1    
    39   18   88 1    
    40   19   20 am   BACKBONE|DICT|INTERRES
    41   19   89 1    
    42   20   21 2    
    43   20   22 1    
    44   22   23 1    
    45   22   24 1    
    46   22   90 1    
    47   23   91 1    
    48   23   92 1    
    49   23   93 1    
    50   24   25 am   BACKBONE|DICT|INTERRES
    51   24   94 1    
    52   25   26 2    
    53   25   27 1    
    54   27   28 1    
    55   27   29 1    
    56   27   95 1    
    57   28   96 1    
    58   28   97 1    
    59   28   98 1    
    60   29   30 am   BACKBONE|DICT|INTERRES
    61   29   99 1    
    62   30   31 2    
    63   30   32 1    
    64   32   33 1    
    65   32   34 1    
    66   32  100 1    
    67   33  101 1    
    68   33  102 1    
    69   33  103 1    
    70   34   35 am   BACKBONE|DICT|INTERRES
    71   34  104 1    
    72   35   36 2    
    73   37   38 2    
    74   37   39 am   BACKBONE|DICT|INTERRES
    75   39   40 1    
    76   39  105 1    
    77   40   41 1    
    78   40   42 1    
    79   40  106 1    
    80   41  107 1    
    81   41  108 1    
    82   41  109 1    
    83   42   43 2    
    84   42   44 am   BACKBONE|DICT|INTERRES
    85   44   45 1    
    86   44  110 1    
    87   45   46 1    
    88   45   47 1    
    89   45  111 1    
    90   46  112 1    
    91   46  113 1    
    92   46  114 1    
    93   47   48 2    
    94   47   49 am   BACKBONE|DICT|INTERRES
    95   49   50 1    
    96   49  115 1    
    97   50   51 1    
    98   50   52 1    
    99   50  116 1    
   100   51  117 1    
   101   51  118 1    
   102   51  119 1    
   103   52   53 2    
   104   52   54 am   BACKBONE|DICT|INTERRES
   105   54   55 1    
   106   54  120 1    
   107   55   56 1    
   108   55   57 1    
   109   55  121 1    
   110   56  122 1    
   111   56  123 1    
   112   56  124 1    
   113   57   58 2    
   114   57   59 am   BACKBONE|DICT|INTERRES
   115   59   60 1    
   116   59  125 1    
   117   60   61 1    
   118   60   62 1    
   119   60  126 1    
   120   61  127 1    
   121   61  128 1    
   122   61  129 1    
   123   62   63 2    
   124   62   64 am   BACKBONE|DICT|INTERRES
   125   64   65 1    
   126   64  130 1    
   127   65   66 1    
   128   65   69 1    
   129   65  131 1    
   130   66   67 am   BACKBONE|DICT|INTERRES
   131   66   68 2    
   132   67  132 1    
   133   67  133 1    
   134   69   70 1    
   135   69  134 1    
   136   69  135 1    
   137   70   71 1    
   138   71  136 1    
   139   71  137 1    
@<TRIPOS>SUBSTRUCTURE
     1 UNK         1 GROUP             0       ****    0 ROOT    
