@<TRIPOS>MOLECULE
3R136
137   139    1
SMALL
USER_CHARGES


@<TRIPOS>ATOM
      1 CA         32.8671   21.4576   -1.1279 C.3       0 UNK        -0.1979 
      2 C          32.6696   22.9319   -1.4484 C.2       0 UNK         0.4864 
      3 O          33.6417   23.6290   -1.7422 O.2       0 UNK        -0.5359 
      4 N          31.4213   23.4065   -1.3950 N.am      1 UNK        -0.4318 
      5 CA         31.0132   24.7780   -1.6953 C.3       1 UNK         0.0824 
      6 C6         31.4422   25.8083   -0.6076 C.3       12 UNK        -0.0944 
      7 S7         30.5249   25.7505    0.9734 S.3       12 UNK        -0.2672 
      8 C8         31.4045   24.4178    1.8463 C.3       12 UNK         0.0333 
      9 C9         30.9676   24.3125    3.2992 C.ar      12 UNK        -0.0807 
     10 C10        31.8785   24.5608    4.3306 C.ar      12 UNK        -0.0894 
     11 C11        31.4894   24.4397    5.6698 C.ar      12 UNK        -0.0804 
     12 C12        30.1712   24.0779    5.9659 C.ar      12 UNK        -0.0824 
     13 C13        29.2490   23.8220    4.9459 C.ar      12 UNK        -0.0762 
     14 C14        29.6596   23.9313    3.6128 C.ar      12 UNK        -0.0782 
     15 C15        27.8313   23.3834    5.3089 C.3       12 UNK         0.0230 
     16 S16        26.5214   24.1195    4.2721 S.3       12 UNK        -0.2608 
     17 C17        26.7487   25.9059    4.5711 C.3       12 UNK        -0.0989 
     18 CA         26.9009   26.6957    3.2384 C.3       5 UNK         0.0716 
     19 N          25.7331   26.5806    2.3513 N.am      5 UNK        -0.4135 
     20 C          24.4603   26.9215    2.6190 C.2       4 UNK         0.5031 
     21 O          24.0661   27.3283    3.7137 O.2       4 UNK        -0.5229 
     22 CA         23.4323   26.8093    1.4743 C.3       4 UNK         0.0329 
     23 CB         23.1083   28.2025    0.9091 C.3       4 UNK        -0.2001 
     24 N          23.8646   25.9444    0.3762 N.am      4 UNK        -0.4303 
     25 C          23.9305   24.6075    0.4328 C.2       3 UNK         0.5044 
     26 O          23.5285   23.9421    1.3876 O.2       3 UNK        -0.5152 
     27 CA         24.5653   23.8874   -0.7732 C.3       3 UNK         0.0319 
     28 CB         23.4732   23.2916   -1.6767 C.3       3 UNK        -0.2001 
     29 N          25.4638   24.7171   -1.5895 N.am      3 UNK        -0.4354 
     30 C          26.5852   25.3070   -1.1516 C.2       2 UNK         0.4964 
     31 O          26.9478   25.3042    0.0264 O.2       2 UNK        -0.5047 
     32 CA         27.4086   26.0805   -2.1954 C.3       2 UNK         0.0288 
     33 CB         27.0469   27.5747   -2.1532 C.3       2 UNK        -0.2113 
     34 N          28.8482   25.9288   -1.9705 N.am      2 UNK        -0.4145 
     35 C          29.5146   24.7691   -2.0625 C.2       1 UNK         0.5006 
     36 O          28.9909   23.7140   -2.4364 O.2       1 UNK        -0.5103 
     37 C          27.3092   28.1686    3.4764 C.2       5 UNK         0.5055 
     38 O          26.5939   29.0939    3.0829 O.2       5 UNK        -0.5220 
     39 N          28.4765   28.3563    4.1118 N.am      6 UNK        -0.4450 
     40 CA         29.0734   29.6437    4.4937 C.3       6 UNK         0.0367 
     41 CB         28.2457   30.3260    5.6032 C.3       6 UNK        -0.1929 
     42 C          29.3492   30.5679    3.2903 C.2       6 UNK         0.5070 
     43 O          29.0631   31.7667    3.3430 O.2       6 UNK        -0.5237 
     44 N          29.8865   29.9882    2.2100 N.am      7 UNK        -0.4739 
     45 CA         30.1943   30.6761    0.9580 C.3       7 UNK         0.0276 
     46 CB         30.2104   29.6508   -0.1884 C.3       7 UNK        -0.1927 
     47 C          31.5107   31.4631    1.0753 C.2       7 UNK         0.5013 
     48 O          32.5520   31.0046    0.5981 O.2       7 UNK        -0.5193 
     49 N          31.4325   32.6303    1.7304 N.am      8 UNK        -0.4253 
     50 CA         32.5123   33.5942    1.9677 C.3       8 UNK         0.0242 
     51 CB         32.9247   34.2854    0.6475 C.3       8 UNK        -0.2000 
     52 C          33.6819   32.9478    2.7303 C.2       8 UNK         0.4948 
     53 O          33.5425   32.6838    3.9242 O.2       8 UNK        -0.5275 
     54 N          34.7948   32.6748    2.0358 N.am      9 UNK        -0.4246 
     55 CA         35.9687   31.9849    2.5759 C.3       9 UNK         0.0261 
     56 CB         37.1007   32.0186    1.5367 C.3       9 UNK        -0.1959 
     57 C          35.6870   30.5369    3.0188 C.2       9 UNK         0.5033 
     58 O          36.3607   30.0488    3.9282 O.2       9 UNK        -0.5390 
     59 N          34.6967   29.8779    2.4000 N.am      10 UNK        -0.4215 
     60 CA         34.2581   28.5306    2.7567 C.3       10 UNK         0.0240 
     61 CB         33.6835   27.8353    1.5125 C.3       10 UNK        -0.1982 
     62 C          33.2595   28.5826    3.9251 C.2       10 UNK         0.4970 
     63 O          32.0621   28.3807    3.7217 O.2       10 UNK        -0.4916 
     64 N          33.7907   28.8510    5.1239 N.am      11 UNK        -0.4279 
     65 CA         33.0956   28.8207    6.4241 C.3       11 UNK         0.1003 
     66 C          32.1278   30.0109    6.6937 C.2       11 UNK         0.5709 
     67 N          32.1650   31.0976    5.9348 N.am      11 UNK        -0.7358 
     68 O          31.3363   29.9659    7.6323 O.2       11 UNK        -0.4999 
     69 C69        32.4400   27.4426    6.7410 C.3       12 UNK        -0.0954 
     70 S70        33.6101   26.0522    6.5993 S.3       12 UNK        -0.2268 
     71 C71        32.4896   24.6303    6.8092 C.3       12 UNK         0.0203 
     72 H72        33.5410   21.3458   -0.2789 H         1 UNK         0.0888 
     73 H73        31.9268   20.9646   -0.8810 H         1 UNK         0.0888 
     74 H74        33.3058   20.9430   -1.9823 H         1 UNK         0.0888 
     75 H75        30.6424   22.7819   -1.2278 H         1 UNK         0.3017 
     76 H76        31.5219   25.0586   -2.6201 H         1 UNK         0.0873 
     77 H77        32.5074   25.7079   -0.3965 H         1 UNK         0.0745 
     78 H78        31.3406   26.8159   -1.0102 H         1 UNK         0.0745 
     79 H79        32.4802   24.5838    1.7776 H         1 UNK         0.0705 
     80 H80        31.2052   23.4675    1.3509 H         1 UNK         0.0705 
     81 H81        32.8967   24.8344    4.0911 H         1 UNK         0.1334 
     82 H82        29.8675   23.9710    6.9986 H         1 UNK         0.1417 
     83 H83        28.9610   23.7242    2.8130 H         1 UNK         0.1562 
     84 H84        27.6123   23.6202    6.3513 H         1 UNK         0.0748 
     85 H85        27.7730   22.2978    5.2221 H         1 UNK         0.0748 
     86 H86        27.6223   26.0442    5.2092 H         1 UNK         0.0940 
     87 H87        25.9049   26.2728    5.1564 H         1 UNK         0.0940 
     88 H88        27.7264   26.2499    2.6800 H         1 UNK         0.0703 
     89 H89        25.9545   26.2257    1.4263 H         1 UNK         0.3081 
     90 H90        22.5165   26.3915    1.8981 H         1 UNK         0.0719 
     91 H91        23.9880   28.6734    0.4681 H         1 UNK         0.0809 
     92 H92        22.3321   28.1525    0.1453 H         1 UNK         0.0809 
     93 H93        22.7450   28.8666    1.6948 H         1 UNK         0.0809 
     94 H94        24.2028   26.4005   -0.4581 H         1 UNK         0.2990 
     95 H95        25.1615   23.0651   -0.3720 H         1 UNK         0.0690 
     96 H96        23.9032   22.6859   -2.4747 H         1 UNK         0.0788 
     97 H97        22.8605   24.0688   -2.1355 H         1 UNK         0.0788 
     98 H98        22.8047   22.6439   -1.1073 H         1 UNK         0.0788 
     99 H99        25.2297   24.7929   -2.5694 H         1 UNK         0.2993 
    100 H100       27.1822   25.6892   -3.1897 H         1 UNK         0.0949 
    101 H101       27.2316   28.0068   -1.1686 H         1 UNK         0.0767 
    102 H102       27.6210   28.1448   -2.8840 H         1 UNK         0.0767 
    103 H103       25.9915   27.7284   -2.3822 H         1 UNK         0.0767 
    104 H104       29.3335   26.7320   -1.6010 H         1 UNK         0.3013 
    105 H105       29.0337   27.5438    4.3392 H         1 UNK         0.3121 
    106 H106       30.0442   29.4046    4.9201 H         1 UNK         0.0774 
    107 H107       28.7525   31.2185    5.9720 H         1 UNK         0.0815 
    108 H108       27.2625   30.6336    5.2458 H         1 UNK         0.0815 
    109 H109       28.1034   29.6626    6.4560 H         1 UNK         0.0815 
    110 H110       30.1800   29.0229    2.2856 H         1 UNK         0.2987 
    111 H111       29.3977   31.3916    0.7408 H         1 UNK         0.0949 
    112 H112       30.4421   30.1316   -1.1396 H         1 UNK         0.0806 
    113 H113       30.9551   28.8753   -0.0248 H         1 UNK         0.0806 
    114 H114       29.2411   29.1649   -0.2958 H         1 UNK         0.0806 
    115 H115       30.5492   32.8371    2.1845 H         1 UNK         0.3010 
    116 H116       32.1060   34.3616    2.6285 H         1 UNK         0.0829 
    117 H117       32.0836   34.8283    0.2159 H         1 UNK         0.0813 
    118 H118       33.7193   35.0139    0.8154 H         1 UNK         0.0813 
    119 H119       33.2742   33.5778   -0.1051 H         1 UNK         0.0813 
    120 H120       34.8082   32.8988    1.0512 H         1 UNK         0.3038 
    121 H121       36.2983   32.5359    3.4593 H         1 UNK         0.0769 
    122 H122       37.9987   31.5339    1.9228 H         1 UNK         0.0811 
    123 H123       37.3735   33.0421    1.2785 H         1 UNK         0.0811 
    124 H124       36.8213   31.5017    0.6177 H         1 UNK         0.0811 
    125 H125       34.1366   30.3640    1.7046 H         1 UNK         0.3204 
    126 H126       35.1183   27.9418    3.0831 H         1 UNK         0.0748 
    127 H127       33.3753   26.8178    1.7508 H         1 UNK         0.0771 
    128 H128       32.8105   28.3574    1.1267 H         1 UNK         0.0771 
    129 H129       34.4203   27.7744    0.7117 H         1 UNK         0.0771 
    130 H130       34.7789   29.0688    5.1596 H         1 UNK         0.2980 
    131 H131       33.8890   28.9620    7.1584 H         1 UNK         0.0545 
    132 H132       32.8296   31.2121    5.1799 H         1 UNK         0.3459 
    133 H133       31.5404   31.8565    6.1510 H         1 UNK         0.3459 
    134 H134       31.5898   27.2623    6.0815 H         1 UNK         0.0616 
    135 H135       32.0440   27.4305    7.7578 H         1 UNK         0.0616 
    136 H136       31.9718   24.7401    7.7633 H         1 UNK         0.0634 
    137 H137       33.0935   23.7257    6.8893 H         1 UNK         0.0634 
@<TRIPOS>BOND
     1    1    2 1    
     2    1   72 1    
     3    1   73 1    
     4    1   74 1    
     5    2    3 2    
     6    2    4 am   BACKBONE|DICT|INTERRES
     7    4    5 1    
     8    4   75 1    
     9    5    6 1    
    10    5   35 1    
    11    5   76 1    
    12    6    7 1    
    13    6   77 1    
    14    6   78 1    
    15    7    8 1    
    16    8    9 1    
    17    8   79 1    
    18    8   80 1    
    19    9   10 ar   
    20    9   14 ar   
    21   10   11 ar   
    22   10   81 1    
    23   11   12 ar   
    24   11   71 1    
    25   12   13 ar   
    26   12   82 1    
    27   13   14 ar   
    28   13   15 1    
    29   14   83 1    
    30   15   16 1    
    31   15   84 1    
    32   15   85 1    
    33   16   17 1    
    34   17   18 1    
    35   17   86 1    
    36   17   87 1    
    37   18   19 1    
    38   18   37 1    
    39   18   88 1    
    40   19   20 am   BACKBONE|DICT|INTERRES
    41   19   89 1    
    42   20   21 2    
    43   20   22 1    
    44   22   23 1    
    45   22   24 1    
    46   22   90 1    
    47   23   91 1    
    48   23   92 1    
    49   23   93 1    
    50   24   25 am   BACKBONE|DICT|INTERRES
    51   24   94 1    
    52   25   26 2    
    53   25   27 1    
    54   27   28 1    
    55   27   29 1    
    56   27   95 1    
    57   28   96 1    
    58   28   97 1    
    59   28   98 1    
    60   29   30 am   BACKBONE|DICT|INTERRES
    61   29   99 1    
    62   30   31 2    
    63   30   32 1    
    64   32   33 1    
    65   32   34 1    
    66   32  100 1    
    67   33  101 1    
    68   33  102 1    
    69   33  103 1    
    70   34   35 am   BACKBONE|DICT|INTERRES
    71   34  104 1    
    72   35   36 2    
    73   37   38 2    
    74   37   39 am   BACKBONE|DICT|INTERRES
    75   39   40 1    
    76   39  105 1    
    77   40   41 1    
    78   40   42 1    
    79   40  106 1    
    80   41  107 1    
    81   41  108 1    
    82   41  109 1    
    83   42   43 2    
    84   42   44 am   BACKBONE|DICT|INTERRES
    85   44   45 1    
    86   44  110 1    
    87   45   46 1    
    88   45   47 1    
    89   45  111 1    
    90   46  112 1    
    91   46  113 1    
    92   46  114 1    
    93   47   48 2    
    94   47   49 am   BACKBONE|DICT|INTERRES
    95   49   50 1    
    96   49  115 1    
    97   50   51 1    
    98   50   52 1    
    99   50  116 1    
   100   51  117 1    
   101   51  118 1    
   102   51  119 1    
   103   52   53 2    
   104   52   54 am   BACKBONE|DICT|INTERRES
   105   54   55 1    
   106   54  120 1    
   107   55   56 1    
   108   55   57 1    
   109   55  121 1    
   110   56  122 1    
   111   56  123 1    
   112   56  124 1    
   113   57   58 2    
   114   57   59 am   BACKBONE|DICT|INTERRES
   115   59   60 1    
   116   59  125 1    
   117   60   61 1    
   118   60   62 1    
   119   60  126 1    
   120   61  127 1    
   121   61  128 1    
   122   61  129 1    
   123   62   63 2    
   124   62   64 am   BACKBONE|DICT|INTERRES
   125   64   65 1    
   126   64  130 1    
   127   65   66 1    
   128   65   69 1    
   129   65  131 1    
   130   66   67 am   BACKBONE|DICT|INTERRES
   131   66   68 2    
   132   67  132 1    
   133   67  133 1    
   134   69   70 1    
   135   69  134 1    
   136   69  135 1    
   137   70   71 1    
   138   71  136 1    
   139   71  137 1    
@<TRIPOS>SUBSTRUCTURE
     1 UNK         1 GROUP             0       ****    0 ROOT    
