@<TRIPOS>MOLECULE
3R136
137   139    1
SMALL
USER_CHARGES


@<TRIPOS>ATOM
      1 CA         24.3662   25.0542    2.6460 C.3       0 UNK        -0.1979 
      2 C          24.9977   23.6737    2.5448 C.2       0 UNK         0.4864 
      3 O          24.4095   22.7712    1.9479 O.2       0 UNK        -0.5359 
      4 N          26.1984   23.5054    3.1151 N.am      1 UNK        -0.4318 
      5 CA         27.0124   22.2822    3.0472 C.3       1 UNK         0.0824 
      6 C6         28.0997   22.2450    4.1536 C.3       12 UNK        -0.0944 
      7 S7         29.0588   23.7911    4.2927 S.3       12 UNK        -0.2672 
      8 C8         30.6096   23.3390    3.4644 C.3       12 UNK         0.0333 
      9 C9         31.3530   24.5946    3.0467 C.ar      12 UNK        -0.0807 
     10 C10        32.2680   25.2015    3.9118 C.ar      12 UNK        -0.0894 
     11 C11        32.9114   26.3856    3.5399 C.ar      12 UNK        -0.0804 
     12 C12        32.6475   26.9473    2.2865 C.ar      12 UNK        -0.0824 
     13 C13        31.7393   26.3452    1.4126 C.ar      12 UNK        -0.0762 
     14 C14        31.0925   25.1706    1.8009 C.ar      12 UNK        -0.0782 
     15 C15        31.4597   26.9731    0.0566 C.3       12 UNK         0.0230 
     16 S16        30.2100   28.2880    0.1794 S.3       12 UNK        -0.2608 
     17 C17        28.6473   27.3703   -0.0535 C.3       12 UNK        -0.0989 
     18 CA         27.4541   28.3449   -0.2245 C.3       5 UNK         0.0716 
     19 N          26.3315   27.7400   -0.9460 N.am      5 UNK        -0.4135 
     20 C          25.4010   28.4560   -1.5965 C.2       4 UNK         0.5031 
     21 O          25.4417   29.6854   -1.6858 O.2       4 UNK        -0.5229 
     22 CA         24.2173   27.7035   -2.2431 C.3       4 UNK         0.0329 
     23 CB         23.6906   28.4119   -3.5105 C.3       4 UNK        -0.2001 
     24 N          24.4624   26.2824   -2.5127 N.am      4 UNK        -0.4303 
     25 C          25.3863   25.7453   -3.3226 C.2       3 UNK         0.5044 
     26 O          26.2036   26.3899   -3.9825 O.2       3 UNK        -0.5152 
     27 CA         25.4034   24.2063   -3.3727 C.3       3 UNK         0.0319 
     28 CB         25.5179   23.6995   -4.8214 C.3       3 UNK        -0.2001 
     29 N          26.4648   23.5911   -2.5669 N.am      3 UNK        -0.4354 
     30 C          26.7885   23.8753   -1.2974 C.2       2 UNK         0.4964 
     31 O          26.3042   24.7996   -0.6346 O.2       2 UNK        -0.5047 
     32 CA         27.8373   22.9620   -0.6518 C.3       2 UNK         0.0288 
     33 CB         29.2614   23.3926   -1.0375 C.3       2 UNK        -0.2113 
     34 N          27.6505   23.0526    0.7928 N.am      2 UNK        -0.4145 
     35 C          27.5982   22.0174    1.6398 C.2       1 UNK         0.5006 
     36 O          27.9565   20.8761    1.3429 O.2       1 UNK        -0.5103 
     37 C          26.9808   28.9037    1.1313 C.2       5 UNK         0.5055 
     38 O          26.1535   28.2786    1.7999 O.2       5 UNK        -0.5220 
     39 N          27.5482   30.0519    1.5239 N.am      6 UNK        -0.4450 
     40 CA         27.3310   30.6873    2.8270 C.3       6 UNK         0.0367 
     41 CB         27.7909   32.1527    2.7523 C.3       6 UNK        -0.1929 
     42 C          28.0471   29.9626    3.9829 C.2       6 UNK         0.5070 
     43 O          27.6548   30.1489    5.1355 O.2       6 UNK        -0.5237 
     44 N          29.0723   29.1618    3.6517 N.am      7 UNK        -0.4739 
     45 CA         29.9543   28.4184    4.5572 C.3       7 UNK         0.0276 
     46 CB         29.1616   27.3518    5.3445 C.3       7 UNK        -0.1927 
     47 C          30.8052   29.3461    5.4508 C.2       7 UNK         0.5013 
     48 O          31.0101   30.5123    5.1017 O.2       7 UNK        -0.5193 
     49 N          31.3179   28.8041    6.5666 N.am      8 UNK        -0.4253 
     50 CA         32.1249   29.4767    7.5933 C.3       8 UNK         0.0242 
     51 CB         31.2311   30.4050    8.4472 C.3       8 UNK        -0.2000 
     52 C          33.3637   30.1800    7.0042 C.2       8 UNK         0.4948 
     53 O          34.3397   29.5066    6.6745 O.2       8 UNK        -0.5275 
     54 N          33.2970   31.5101    6.8606 N.am      9 UNK        -0.4246 
     55 CA         34.3446   32.3507    6.2791 C.3       9 UNK         0.0261 
     56 CB         34.0169   33.8262    6.5600 C.3       9 UNK        -0.1959 
     57 C          34.5690   32.1304    4.7714 C.2       9 UNK         0.5033 
     58 O          35.6510   32.4635    4.2854 O.2       9 UNK        -0.5390 
     59 N          33.5801   31.5679    4.0561 N.am      10 UNK        -0.4215 
     60 CA         33.6060   31.3482    2.6017 C.3       10 UNK         0.0240 
     61 CB         32.2257   30.8524    2.1377 C.3       10 UNK        -0.1982 
     62 C          34.7173   30.4079    2.0893 C.2       10 UNK         0.4970 
     63 O          34.9808   30.4044    0.8864 O.2       10 UNK        -0.4916 
     64 N          35.3423   29.6415    2.9895 N.am      11 UNK        -0.4279 
     65 CA         36.4913   28.7651    2.7274 C.3       11 UNK         0.1003 
     66 C          37.7346   29.1240    3.5932 C.2       11 UNK         0.5709 
     67 N          37.7724   30.2758    4.2565 N.am      11 UNK        -0.7358 
     68 O          38.6982   28.3631    3.6433 O.2       11 UNK        -0.4999 
     69 C69        36.0944   27.2616    2.7631 C.3       12 UNK        -0.0954 
     70 S70        35.5725   26.6152    4.3929 S.3       12 UNK        -0.2268 
     71 C71        33.8221   27.1030    4.5236 C.3       12 UNK         0.0203 
     72 H72        24.2324   25.4761    1.6499 H         1 UNK         0.0888 
     73 H73        23.3900   24.9891    3.1255 H         1 UNK         0.0888 
     74 H74        24.9832   25.7447    3.2213 H         1 UNK         0.0888 
     75 H75        26.6342   24.2748    3.6055 H         1 UNK         0.3017 
     76 H76        26.3391   21.4438    3.2399 H         1 UNK         0.0873 
     77 H77        27.6151   22.0853    5.1180 H         1 UNK         0.0745 
     78 H78        28.7711   21.3933    4.0263 H         1 UNK         0.0745 
     79 H79        30.4016   22.7227    2.5884 H         1 UNK         0.0705 
     80 H80        31.2203   22.7331    4.1354 H         1 UNK         0.0705 
     81 H81        32.4548   24.7692    4.8854 H         1 UNK         0.1334 
     82 H82        33.1327   27.8674    1.9951 H         1 UNK         0.1417 
     83 H83        30.3720   24.7086    1.1447 H         1 UNK         0.1562 
     84 H84        31.1484   26.2193   -0.6677 H         1 UNK         0.0748 
     85 H85        32.3805   27.4060   -0.3377 H         1 UNK         0.0748 
     86 H86        28.4909   26.6705    0.7705 H         1 UNK         0.0940 
     87 H87        28.7540   26.7649   -0.9547 H         1 UNK         0.0940 
     88 H88        27.7996   29.1832   -0.8346 H         1 UNK         0.0703 
     89 H89        26.2209   26.7331   -0.8641 H         1 UNK         0.3081 
     90 H90        23.4181   27.7295   -1.5009 H         1 UNK         0.0719 
     91 H91        23.3555   29.4252   -3.2854 H         1 UNK         0.0809 
     92 H92        24.4599   28.4883   -4.2796 H         1 UNK         0.0809 
     93 H93        22.8399   27.8813   -3.9379 H         1 UNK         0.0809 
     94 H94        23.8861   25.6434   -1.9818 H         1 UNK         0.2990 
     95 H95        24.4535   23.8429   -2.9751 H         1 UNK         0.0690 
     96 H96        25.4003   22.6170   -4.8761 H         1 UNK         0.0788 
     97 H97        26.4817   23.9557   -5.2638 H         1 UNK         0.0788 
     98 H98        24.7436   24.1395   -5.4516 H         1 UNK         0.0788 
     99 H99        26.9607   22.8347   -3.0160 H         1 UNK         0.2993 
    100 H100       27.6606   21.9370   -0.9862 H         1 UNK         0.0949 
    101 H101       30.0121   22.8409   -0.4713 H         1 UNK         0.0767 
    102 H102       29.4504   23.2027   -2.0947 H         1 UNK         0.0767 
    103 H103       29.4197   24.4569   -0.8714 H         1 UNK         0.0767 
    104 H104       27.2611   23.9355    1.0978 H         1 UNK         0.3013 
    105 H105       28.2209   30.4927    0.9121 H         1 UNK         0.3121 
    106 H106       26.2604   30.6735    3.0433 H         1 UNK         0.0774 
    107 H107       27.6095   32.6656    3.6979 H         1 UNK         0.0815 
    108 H108       28.8583   32.2308    2.5416 H         1 UNK         0.0815 
    109 H109       27.2520   32.7010    1.9795 H         1 UNK         0.0815 
    110 H110       29.3156   29.1064    2.6729 H         1 UNK         0.2987 
    111 H111       30.6518   27.8939    3.9085 H         1 UNK         0.0949 
    112 H112       28.4897   26.8004    4.6868 H         1 UNK         0.0806 
    113 H113       29.8251   26.6164    5.8004 H         1 UNK         0.0806 
    114 H114       28.5582   27.7943    6.1380 H         1 UNK         0.0806 
    115 H115       31.1214   27.8296    6.7450 H         1 UNK         0.3010 
    116 H116       32.5076   28.6948    8.2513 H         1 UNK         0.0829 
    117 H117       30.4605   29.8325    8.9637 H         1 UNK         0.0813 
    118 H118       31.8125   30.9186    9.2143 H         1 UNK         0.0813 
    119 H119       30.7241   31.1624    7.8481 H         1 UNK         0.0813 
    120 H120       32.4369   31.9705    7.1218 H         1 UNK         0.3038 
    121 H121       35.2830   32.1079    6.7824 H         1 UNK         0.0769 
    122 H122       34.7965   34.4809    6.1675 H         1 UNK         0.0811 
    123 H123       33.9431   34.0206    7.6301 H         1 UNK         0.0811 
    124 H124       33.0761   34.1264    6.0967 H         1 UNK         0.0811 
    125 H125       32.7201   31.3080    4.5347 H         1 UNK         0.3204 
    126 H126       33.7853   32.3199    2.1372 H         1 UNK         0.0748 
    127 H127       32.1939   30.7294    1.0541 H         1 UNK         0.0771 
    128 H128       31.9729   29.8898    2.5809 H         1 UNK         0.0771 
    129 H129       31.4391   31.5583    2.4048 H         1 UNK         0.0771 
    130 H130       35.0814   29.7254    3.9619 H         1 UNK         0.2980 
    131 H131       36.8409   28.9566    1.7117 H         1 UNK         0.0545 
    132 H132       38.5895   30.4951    4.8034 H         1 UNK         0.3459 
    133 H133       37.0234   30.9545    4.1801 H         1 UNK         0.3459 
    134 H134       35.3204   27.0623    2.0245 H         1 UNK         0.0616 
    135 H135       36.9428   26.6569    2.4385 H         1 UNK         0.0616 
    136 H136       33.7175   28.1797    4.4059 H         1 UNK         0.0634 
    137 H137       33.4926   26.8928    5.5421 H         1 UNK         0.0634 
@<TRIPOS>BOND
     1    1    2 1    
     2    1   72 1    
     3    1   73 1    
     4    1   74 1    
     5    2    3 2    
     6    2    4 am   BACKBONE|DICT|INTERRES
     7    4    5 1    
     8    4   75 1    
     9    5    6 1    
    10    5   35 1    
    11    5   76 1    
    12    6    7 1    
    13    6   77 1    
    14    6   78 1    
    15    7    8 1    
    16    8    9 1    
    17    8   79 1    
    18    8   80 1    
    19    9   10 ar   
    20    9   14 ar   
    21   10   11 ar   
    22   10   81 1    
    23   11   12 ar   
    24   11   71 1    
    25   12   13 ar   
    26   12   82 1    
    27   13   14 ar   
    28   13   15 1    
    29   14   83 1    
    30   15   16 1    
    31   15   84 1    
    32   15   85 1    
    33   16   17 1    
    34   17   18 1    
    35   17   86 1    
    36   17   87 1    
    37   18   19 1    
    38   18   37 1    
    39   18   88 1    
    40   19   20 am   BACKBONE|DICT|INTERRES
    41   19   89 1    
    42   20   21 2    
    43   20   22 1    
    44   22   23 1    
    45   22   24 1    
    46   22   90 1    
    47   23   91 1    
    48   23   92 1    
    49   23   93 1    
    50   24   25 am   BACKBONE|DICT|INTERRES
    51   24   94 1    
    52   25   26 2    
    53   25   27 1    
    54   27   28 1    
    55   27   29 1    
    56   27   95 1    
    57   28   96 1    
    58   28   97 1    
    59   28   98 1    
    60   29   30 am   BACKBONE|DICT|INTERRES
    61   29   99 1    
    62   30   31 2    
    63   30   32 1    
    64   32   33 1    
    65   32   34 1    
    66   32  100 1    
    67   33  101 1    
    68   33  102 1    
    69   33  103 1    
    70   34   35 am   BACKBONE|DICT|INTERRES
    71   34  104 1    
    72   35   36 2    
    73   37   38 2    
    74   37   39 am   BACKBONE|DICT|INTERRES
    75   39   40 1    
    76   39  105 1    
    77   40   41 1    
    78   40   42 1    
    79   40  106 1    
    80   41  107 1    
    81   41  108 1    
    82   41  109 1    
    83   42   43 2    
    84   42   44 am   BACKBONE|DICT|INTERRES
    85   44   45 1    
    86   44  110 1    
    87   45   46 1    
    88   45   47 1    
    89   45  111 1    
    90   46  112 1    
    91   46  113 1    
    92   46  114 1    
    93   47   48 2    
    94   47   49 am   BACKBONE|DICT|INTERRES
    95   49   50 1    
    96   49  115 1    
    97   50   51 1    
    98   50   52 1    
    99   50  116 1    
   100   51  117 1    
   101   51  118 1    
   102   51  119 1    
   103   52   53 2    
   104   52   54 am   BACKBONE|DICT|INTERRES
   105   54   55 1    
   106   54  120 1    
   107   55   56 1    
   108   55   57 1    
   109   55  121 1    
   110   56  122 1    
   111   56  123 1    
   112   56  124 1    
   113   57   58 2    
   114   57   59 am   BACKBONE|DICT|INTERRES
   115   59   60 1    
   116   59  125 1    
   117   60   61 1    
   118   60   62 1    
   119   60  126 1    
   120   61  127 1    
   121   61  128 1    
   122   61  129 1    
   123   62   63 2    
   124   62   64 am   BACKBONE|DICT|INTERRES
   125   64   65 1    
   126   64  130 1    
   127   65   66 1    
   128   65   69 1    
   129   65  131 1    
   130   66   67 am   BACKBONE|DICT|INTERRES
   131   66   68 2    
   132   67  132 1    
   133   67  133 1    
   134   69   70 1    
   135   69  134 1    
   136   69  135 1    
   137   70   71 1    
   138   71  136 1    
   139   71  137 1    
@<TRIPOS>SUBSTRUCTURE
     1 UNK         1 GROUP             0       ****    0 ROOT    
