@<TRIPOS>MOLECULE
3R136
137   139    1
SMALL
USER_CHARGES


@<TRIPOS>ATOM
      1 CA         26.0111   21.5462   -1.6647 C.3       0 UNK        -0.1979 
      2 C          27.3093   22.0598   -2.2700 C.2       0 UNK         0.4864 
      3 O          27.4420   22.0951   -3.4948 O.2       0 UNK        -0.5359 
      4 N          28.2688   22.4489   -1.4214 N.am      1 UNK        -0.4318 
      5 CA         29.5456   23.0496   -1.8170 C.3       1 UNK         0.0824 
      6 C6         30.6113   22.9033   -0.7006 C.3       12 UNK        -0.0944 
      7 S7         30.1509   23.6685    0.8966 S.3       12 UNK        -0.2672 
      8 C8         30.3739   22.2530    2.0135 C.3       12 UNK         0.0333 
      9 C9         30.3300   22.6902    3.4671 C.ar      12 UNK        -0.0807 
     10 C10        31.4857   23.1826    4.0795 C.ar      12 UNK        -0.0894 
     11 C11        31.4736   23.5736    5.4247 C.ar      12 UNK        -0.0804 
     12 C12        30.2863   23.4467    6.1533 C.ar      12 UNK        -0.0824 
     13 C13        29.1214   22.9600    5.5503 C.ar      12 UNK        -0.0762 
     14 C14        29.1482   22.5848    4.2042 C.ar      12 UNK        -0.0782 
     15 C15        27.8328   22.8500    6.3528 C.3       12 UNK         0.0230 
     16 S16        27.1634   24.4866    6.7899 S.3       12 UNK        -0.2608 
     17 C17        26.7490   25.1844    5.1530 C.3       12 UNK        -0.0989 
     18 CA         27.9042   26.0278    4.5429 C.3       5 UNK         0.0716 
     19 N          27.8258   26.1125    3.0795 N.am      5 UNK        -0.4135 
     20 C          26.9012   26.7818    2.3745 C.2       4 UNK         0.5031 
     21 O          25.9462   27.3682    2.8840 O.2       4 UNK        -0.5229 
     22 CA         27.1064   26.8272    0.8460 C.3       4 UNK         0.0329 
     23 CB         26.2533   27.9058    0.1466 C.3       4 UNK        -0.2001 
     24 N          28.5106   26.9718    0.4451 N.am      4 UNK        -0.4303 
     25 C          29.3744   27.9267    0.8294 C.2       3 UNK         0.5044 
     26 O          29.0963   28.8183    1.6333 O.2       3 UNK        -0.5152 
     27 CA         30.7966   27.8679    0.2426 C.3       3 UNK         0.0319 
     28 CB         31.7748   27.2923    1.2792 C.3       3 UNK        -0.2001 
     29 N          30.8848   27.0858   -0.9939 N.am      3 UNK        -0.4354 
     30 C          30.4259   27.4932   -2.1875 C.2       2 UNK         0.4964 
     31 O          29.9619   28.6133   -2.3974 O.2       2 UNK        -0.5047 
     32 CA         30.4640   26.4736   -3.3434 C.3       2 UNK         0.0288 
     33 CB         31.7237   26.6801   -4.2005 C.3       2 UNK        -0.2113 
     34 N          30.3953   25.0707   -2.9147 N.am      2 UNK        -0.4145 
     35 C          29.3716   24.5223   -2.2432 C.2       1 UNK         0.5006 
     36 O          28.3627   25.1501   -1.9099 O.2       1 UNK        -0.5103 
     37 C          28.0993   27.4188    5.1929 C.2       5 UNK         0.5055 
     38 O          27.4030   27.7730    6.1461 O.2       5 UNK        -0.5220 
     39 N          29.0455   28.1878    4.6330 N.am      6 UNK        -0.4450 
     40 CA         29.4434   29.5453    5.0230 C.3       6 UNK         0.0367 
     41 CB         30.0030   29.5730    6.4609 C.3       6 UNK        -0.1929 
     42 C          28.3570   30.6136    4.7867 C.2       6 UNK         0.5070 
     43 O          28.4283   31.6905    5.3819 O.2       6 UNK        -0.5237 
     44 N          27.3857   30.3252    3.9078 N.am      7 UNK        -0.4739 
     45 CA         26.4371   31.3151    3.3898 C.3       7 UNK         0.0276 
     46 CB         25.1586   30.6135    2.9084 C.3       7 UNK        -0.1927 
     47 C          27.0631   32.1611    2.2662 C.2       7 UNK         0.5013 
     48 O          26.6409   33.3015    2.0686 O.2       7 UNK        -0.5193 
     49 N          28.0657   31.6020    1.5755 N.am      8 UNK        -0.4253 
     50 CA         28.9590   32.3024    0.6562 C.3       8 UNK         0.0242 
     51 CB         28.9952   31.5379   -0.6804 C.3       8 UNK        -0.2000 
     52 C          30.3483   32.4272    1.3123 C.2       8 UNK         0.4948 
     53 O          30.4701   32.2888    2.5321 O.2       8 UNK        -0.5275 
     54 N          31.3744   32.7256    0.5058 N.am      9 UNK        -0.4246 
     55 CA         32.7636   32.8492    0.9540 C.3       9 UNK         0.0261 
     56 CB         33.5930   33.5079   -0.1611 C.3       9 UNK        -0.1959 
     57 C          33.3719   31.4888    1.3426 C.2       9 UNK         0.5033 
     58 O          33.0742   30.4860    0.6910 O.2       9 UNK        -0.5390 
     59 N          34.2594   31.5161    2.3479 N.am      10 UNK        -0.4215 
     60 CA         35.0105   30.3968    2.9364 C.3       10 UNK         0.0240 
     61 CB         35.8083   29.6218    1.8628 C.3       10 UNK        -0.1982 
     62 C          34.1522   29.4575    3.8081 C.2       10 UNK         0.4970 
     63 O          32.9294   29.5870    3.8685 O.2       10 UNK        -0.4916 
     64 N          34.8418   28.5445    4.5044 N.am      11 UNK        -0.4279 
     65 CA         34.2982   27.5394    5.4360 C.3       11 UNK         0.1003 
     66 C          33.6565   28.1030    6.7416 C.2       11 UNK         0.5709 
     67 N          33.8272   29.3787    7.0676 N.am      11 UNK        -0.7358 
     68 O          33.0283   27.3669    7.4975 O.2       11 UNK        -0.4999 
     69 C69        33.4256   26.4573    4.7219 C.3       12 UNK        -0.0954 
     70 S70        34.0299   24.7698    5.0650 S.3       12 UNK        -0.2268 
     71 C71        32.7246   24.0832    6.1432 C.3       12 UNK         0.0203 
     72 H72        25.8226   20.5240   -1.9918 H         1 UNK         0.0888 
     73 H73        26.0381   21.5540   -0.5751 H         1 UNK         0.0888 
     74 H74        25.1761   22.1676   -1.9872 H         1 UNK         0.0888 
     75 H75        28.0931   22.4346   -0.4274 H         1 UNK         0.3017 
     76 H76        29.9093   22.5073   -2.6929 H         1 UNK         0.0873 
     77 H77        30.8105   21.8414   -0.5481 H         1 UNK         0.0745 
     78 H78        31.5671   23.3253   -1.0164 H         1 UNK         0.0745 
     79 H79        29.6053   21.5053    1.8115 H         1 UNK         0.0705 
     80 H80        31.3330   21.7740    1.8095 H         1 UNK         0.0705 
     81 H81        32.3943   23.2487    3.4981 H         1 UNK         0.1334 
     82 H82        30.2628   23.7344    7.1960 H         1 UNK         0.1417 
     83 H83        28.2521   22.2076    3.7302 H         1 UNK         0.1562 
     84 H84        28.0295   22.2931    7.2700 H         1 UNK         0.0748 
     85 H85        27.0759   22.2831    5.8082 H         1 UNK         0.0748 
     86 H86        25.8375   25.7792    5.2386 H         1 UNK         0.0940 
     87 H87        26.4954   24.3582    4.4873 H         1 UNK         0.0940 
     88 H88        28.8399   25.5031    4.7302 H         1 UNK         0.0703 
     89 H89        28.5679   25.6533    2.5697 H         1 UNK         0.3081 
     90 H90        26.7790   25.8557    0.4726 H         1 UNK         0.0719 
     91 H91        26.5738   28.9115    0.4176 H         1 UNK         0.0809 
     92 H92        25.1979   27.8109    0.4046 H         1 UNK         0.0809 
     93 H93        26.3283   27.8183   -0.9373 H         1 UNK         0.0809 
     94 H94        28.8198   26.2999   -0.2487 H         1 UNK         0.2990 
     95 H95        31.0987   28.8929    0.0229 H         1 UNK         0.0690 
     96 H96        32.8034   27.3413    0.9214 H         1 UNK         0.0788 
     97 H97        31.5500   26.2552    1.5280 H         1 UNK         0.0788 
     98 H98        31.7340   27.8664    2.2054 H         1 UNK         0.0788 
     99 H99        31.2651   26.1541   -0.9157 H         1 UNK         0.2993 
    100 H100       29.5890   26.6676   -3.9678 H         1 UNK         0.0949 
    101 H101       31.7167   26.0355   -5.0798 H         1 UNK         0.0767 
    102 H102       31.7884   27.7093   -4.5571 H         1 UNK         0.0767 
    103 H103       32.6345   26.4730   -3.6371 H         1 UNK         0.0767 
    104 H104       31.1903   24.4927   -3.1478 H         1 UNK         0.3013 
    105 H105       29.5014   27.8438    3.7991 H         1 UNK         0.3121 
    106 H106       30.2604   29.8124    4.3507 H         1 UNK         0.0774 
    107 H107       30.4928   30.5248    6.6692 H         1 UNK         0.0815 
    108 H108       29.2173   29.4412    7.2051 H         1 UNK         0.0815 
    109 H109       30.7438   28.7893    6.6119 H         1 UNK         0.0815 
    110 H110       27.3841   29.4123    3.4715 H         1 UNK         0.2987 
    111 H111       26.1594   31.9958    4.1978 H         1 UNK         0.0949 
    112 H112       25.3522   29.9443    2.0722 H         1 UNK         0.0806 
    113 H113       24.7043   30.0258    3.7064 H         1 UNK         0.0806 
    114 H114       24.4170   31.3414    2.5770 H         1 UNK         0.0806 
    115 H115       28.3717   30.6693    1.8384 H         1 UNK         0.3010 
    116 H116       28.5950   33.3143    0.4676 H         1 UNK         0.0829 
    117 H117       27.9892   31.3458   -1.0540 H         1 UNK         0.0813 
    118 H118       29.5172   32.1026   -1.4530 H         1 UNK         0.0813 
    119 H119       29.4977   30.5770   -0.5800 H         1 UNK         0.0813 
    120 H120       31.2114   32.7910   -0.4878 H         1 UNK         0.3038 
    121 H121       32.7778   33.5044    1.8280 H         1 UNK         0.0769 
    122 H122       33.2021   34.4921   -0.4203 H         1 UNK         0.0811 
    123 H123       33.6043   32.9002   -1.0670 H         1 UNK         0.0811 
    124 H124       34.6294   33.6445    0.1506 H         1 UNK         0.0811 
    125 H125       34.4029   32.4036    2.8095 H         1 UNK         0.3204 
    126 H126       35.7332   30.8627    3.6082 H         1 UNK         0.0748 
    127 H127       36.3620   30.2998    1.2131 H         1 UNK         0.0771 
    128 H128       36.5369   28.9491    2.3159 H         1 UNK         0.0771 
    129 H129       35.1584   29.0124    1.2338 H         1 UNK         0.0771 
    130 H130       35.8473   28.5356    4.4145 H         1 UNK         0.2980 
    131 H131       35.2015   27.0527    5.8051 H         1 UNK         0.0545 
    132 H132       33.4226   29.7251    7.9226 H         1 UNK         0.3459 
    133 H133       34.3455   29.9974    6.4664 H         1 UNK         0.3459 
    134 H134       32.3676   26.5437    4.9773 H         1 UNK         0.0616 
    135 H135       33.4683   26.5798    3.6391 H         1 UNK         0.0616 
    136 H136       32.4499   24.8340    6.8849 H         1 UNK         0.0634 
    137 H137       33.1542   23.2486    6.6983 H         1 UNK         0.0634 
@<TRIPOS>BOND
     1    1    2 1    
     2    1   72 1    
     3    1   73 1    
     4    1   74 1    
     5    2    3 2    
     6    2    4 am   BACKBONE|DICT|INTERRES
     7    4    5 1    
     8    4   75 1    
     9    5    6 1    
    10    5   35 1    
    11    5   76 1    
    12    6    7 1    
    13    6   77 1    
    14    6   78 1    
    15    7    8 1    
    16    8    9 1    
    17    8   79 1    
    18    8   80 1    
    19    9   10 ar   
    20    9   14 ar   
    21   10   11 ar   
    22   10   81 1    
    23   11   12 ar   
    24   11   71 1    
    25   12   13 ar   
    26   12   82 1    
    27   13   14 ar   
    28   13   15 1    
    29   14   83 1    
    30   15   16 1    
    31   15   84 1    
    32   15   85 1    
    33   16   17 1    
    34   17   18 1    
    35   17   86 1    
    36   17   87 1    
    37   18   19 1    
    38   18   37 1    
    39   18   88 1    
    40   19   20 am   BACKBONE|DICT|INTERRES
    41   19   89 1    
    42   20   21 2    
    43   20   22 1    
    44   22   23 1    
    45   22   24 1    
    46   22   90 1    
    47   23   91 1    
    48   23   92 1    
    49   23   93 1    
    50   24   25 am   BACKBONE|DICT|INTERRES
    51   24   94 1    
    52   25   26 2    
    53   25   27 1    
    54   27   28 1    
    55   27   29 1    
    56   27   95 1    
    57   28   96 1    
    58   28   97 1    
    59   28   98 1    
    60   29   30 am   BACKBONE|DICT|INTERRES
    61   29   99 1    
    62   30   31 2    
    63   30   32 1    
    64   32   33 1    
    65   32   34 1    
    66   32  100 1    
    67   33  101 1    
    68   33  102 1    
    69   33  103 1    
    70   34   35 am   BACKBONE|DICT|INTERRES
    71   34  104 1    
    72   35   36 2    
    73   37   38 2    
    74   37   39 am   BACKBONE|DICT|INTERRES
    75   39   40 1    
    76   39  105 1    
    77   40   41 1    
    78   40   42 1    
    79   40  106 1    
    80   41  107 1    
    81   41  108 1    
    82   41  109 1    
    83   42   43 2    
    84   42   44 am   BACKBONE|DICT|INTERRES
    85   44   45 1    
    86   44  110 1    
    87   45   46 1    
    88   45   47 1    
    89   45  111 1    
    90   46  112 1    
    91   46  113 1    
    92   46  114 1    
    93   47   48 2    
    94   47   49 am   BACKBONE|DICT|INTERRES
    95   49   50 1    
    96   49  115 1    
    97   50   51 1    
    98   50   52 1    
    99   50  116 1    
   100   51  117 1    
   101   51  118 1    
   102   51  119 1    
   103   52   53 2    
   104   52   54 am   BACKBONE|DICT|INTERRES
   105   54   55 1    
   106   54  120 1    
   107   55   56 1    
   108   55   57 1    
   109   55  121 1    
   110   56  122 1    
   111   56  123 1    
   112   56  124 1    
   113   57   58 2    
   114   57   59 am   BACKBONE|DICT|INTERRES
   115   59   60 1    
   116   59  125 1    
   117   60   61 1    
   118   60   62 1    
   119   60  126 1    
   120   61  127 1    
   121   61  128 1    
   122   61  129 1    
   123   62   63 2    
   124   62   64 am   BACKBONE|DICT|INTERRES
   125   64   65 1    
   126   64  130 1    
   127   65   66 1    
   128   65   69 1    
   129   65  131 1    
   130   66   67 am   BACKBONE|DICT|INTERRES
   131   66   68 2    
   132   67  132 1    
   133   67  133 1    
   134   69   70 1    
   135   69  134 1    
   136   69  135 1    
   137   70   71 1    
   138   71  136 1    
   139   71  137 1    
@<TRIPOS>SUBSTRUCTURE
     1 UNK         1 GROUP             0       ****    0 ROOT    
