@<TRIPOS>MOLECULE
3R136
137   139    1
SMALL
USER_CHARGES


@<TRIPOS>ATOM
      1 CA         32.2210   27.3196   -3.0732 C.3       0 UNK        -0.1979 
      2 C          31.0824   26.4849   -2.5062 C.2       0 UNK         0.4864 
      3 O          30.2985   25.9221   -3.2723 O.2       0 UNK        -0.5359 
      4 N          30.9745   26.4215   -1.1707 N.am      1 UNK        -0.4318 
      5 CA         30.0137   25.6473   -0.3653 C.3       1 UNK         0.0824 
      6 C6         30.0415   24.1157   -0.6283 C.3       12 UNK        -0.0944 
      7 S7         31.7179   23.3974   -0.5635 S.3       12 UNK        -0.2672 
      8 C8         31.5753   22.1872    0.7918 C.3       12 UNK         0.0333 
      9 C9         31.5603   22.8200    2.1793 C.ar      12 UNK        -0.0807 
     10 C10        32.5101   23.7838    2.5367 C.ar      12 UNK        -0.0894 
     11 C11        32.5424   24.3085    3.8317 C.ar      12 UNK        -0.0804 
     12 C12        31.6223   23.8535    4.7790 C.ar      12 UNK        -0.0824 
     13 C13        30.6601   22.9010    4.4339 C.ar      12 UNK        -0.0762 
     14 C14        30.6328   22.3881    3.1332 C.ar      12 UNK        -0.0782 
     15 C15        29.6634   22.4126    5.4751 C.3       12 UNK         0.0230 
     16 S16        27.9974   23.0907    5.1988 S.3       12 UNK        -0.2608 
     17 C17        28.2787   24.8891    5.3623 C.3       12 UNK        -0.0989 
     18 CA         28.2528   25.6126    3.9860 C.3       5 UNK         0.0716 
     19 N          27.0127   25.3930    3.2296 N.am      5 UNK        -0.4135 
     20 C          25.7763   25.7794    3.5809 C.2       4 UNK         0.5031 
     21 O          25.5006   26.3042    4.6607 O.2       4 UNK        -0.5229 
     22 CA         24.6478   25.5701    2.5570 C.3       4 UNK         0.0329 
     23 CB         23.9370   26.9001    2.2436 C.3       4 UNK        -0.2001 
     24 N          25.1246   24.9918    1.2982 N.am      4 UNK        -0.4303 
     25 C          24.5452   23.9769    0.6408 C.2       3 UNK         0.5044 
     26 O          23.5870   23.3394    1.0811 O.2       3 UNK        -0.5152 
     27 CA         25.1314   23.6052   -0.7418 C.3       3 UNK         0.0319 
     28 CB         24.0476   23.1328   -1.7342 C.3       3 UNK        -0.2001 
     29 N          25.9634   24.6616   -1.3372 N.am      3 UNK        -0.4354 
     30 C          25.5953   25.9133   -1.6585 C.2       2 UNK         0.4964 
     31 O          24.4294   26.3084   -1.6300 O.2       2 UNK        -0.5047 
     32 CA         26.7207   26.9038   -2.0307 C.3       2 UNK         0.0288 
     33 CB         26.4447   28.3152   -1.4647 C.3       2 UNK        -0.2113 
     34 N          28.0763   26.4538   -1.6675 N.am      2 UNK        -0.4145 
     35 C          28.5633   26.1712   -0.4492 C.2       1 UNK         0.5006 
     36 O          27.9008   26.2671    0.5862 O.2       1 UNK        -0.5103 
     37 C          28.5548   27.1248    4.0832 C.2       5 UNK         0.5055 
     38 O          28.7831   27.6433    5.1778 O.2       5 UNK        -0.5220 
     39 N          28.4897   27.8087    2.9324 N.am      6 UNK        -0.4450 
     40 CA         28.5898   29.2594    2.8078 C.3       6 UNK         0.0367 
     41 CB         27.1694   29.8654    2.8119 C.3       6 UNK        -0.1929 
     42 C          29.4377   29.6216    1.5775 C.2       6 UNK         0.5070 
     43 O          30.6309   29.3230    1.5676 O.2       6 UNK        -0.5237 
     44 N          28.8310   30.2946    0.5858 N.am      7 UNK        -0.4739 
     45 CA         29.4553   30.8695   -0.6204 C.3       7 UNK         0.0276 
     46 CB         30.0996   29.7774   -1.4990 C.3       7 UNK        -0.1927 
     47 C          30.4455   32.0125   -0.3134 C.2       7 UNK         0.5013 
     48 O          31.3742   32.2408   -1.0899 O.2       7 UNK        -0.5193 
     49 N          30.2367   32.6955    0.8232 N.am      8 UNK        -0.4253 
     50 CA         31.0651   33.7672    1.3956 C.3       8 UNK         0.0242 
     51 CB         31.0924   35.0039    0.4713 C.3       8 UNK        -0.2000 
     52 C          32.4817   33.3246    1.8246 C.2       8 UNK         0.4948 
     53 O          33.3176   34.1844    2.1107 O.2       8 UNK        -0.5275 
     54 N          32.7303   32.0096    1.8935 N.am      9 UNK        -0.4246 
     55 CA         33.9564   31.4221    2.4298 C.3       9 UNK         0.0261 
     56 CB         34.1275   30.0133    1.8389 C.3       9 UNK        -0.1959 
     57 C          33.8939   31.3646    3.9639 C.2       9 UNK         0.5033 
     58 O          32.8008   31.3545    4.5379 O.2       9 UNK        -0.5390 
     59 N          35.0643   31.2762    4.6086 N.am      10 UNK        -0.4215 
     60 CA         35.2313   31.1872    6.0659 C.3       10 UNK         0.0240 
     61 CB         36.6530   31.6545    6.4330 C.3       10 UNK        -0.1982 
     62 C          34.9010   29.7874    6.6326 C.2       10 UNK         0.4970 
     63 O          35.6695   29.2451    7.4293 O.2       10 UNK        -0.4916 
     64 N          33.7725   29.2216    6.1976 N.am      11 UNK        -0.4279 
     65 CA         33.2339   27.9299    6.6338 C.3       11 UNK         0.1003 
     66 C          32.6095   28.0050    8.0531 C.2       11 UNK         0.5709 
     67 N          32.6112   26.9007    8.7876 N.am      11 UNK        -0.7358 
     68 O          32.0985   29.0380    8.4835 O.2       11 UNK        -0.4999 
     69 C69        32.2170   27.3777    5.6025 C.3       12 UNK        -0.0954 
     70 S70        32.9876   27.0411    3.9837 S.3       12 UNK        -0.2268 
     71 C71        33.5941   25.3405    4.2090 C.3       12 UNK         0.0203 
     72 H72        32.8741   26.6957   -3.6826 H         1 UNK         0.0888 
     73 H73        31.8250   28.1160   -3.7028 H         1 UNK         0.0888 
     74 H74        32.8239   27.7758   -2.2882 H         1 UNK         0.0888 
     75 H75        31.6429   26.9393   -0.6172 H         1 UNK         0.3017 
     76 H76        30.3282   25.8001    0.6689 H         1 UNK         0.0873 
     77 H77        29.4053   23.6004    0.0942 H         1 UNK         0.0745 
     78 H78        29.6278   23.8831   -1.6112 H         1 UNK         0.0745 
     79 H79        30.6881   21.5733    0.6285 H         1 UNK         0.0705 
     80 H80        32.4283   21.5098    0.7372 H         1 UNK         0.0705 
     81 H81        33.2367   24.1168    1.8080 H         1 UNK         0.1334 
     82 H82        31.6573   24.2353    5.7893 H         1 UNK         0.1417 
     83 H83        29.8971   21.6388    2.8733 H         1 UNK         0.1562 
     84 H84        29.9933   22.6704    6.4828 H         1 UNK         0.0748 
     85 H85        29.6109   21.3234    5.4426 H         1 UNK         0.0748 
     86 H86        29.2285   25.0642    5.8695 H         1 UNK         0.0940 
     87 H87        27.5142   25.2946    6.0269 H         1 UNK         0.0940 
     88 H88        29.0569   25.1915    3.3798 H         1 UNK         0.0703 
     89 H89        27.1389   24.9951    2.3108 H         1 UNK         0.3081 
     90 H90        23.9301   24.8980    3.0316 H         1 UNK         0.0719 
     91 H91        23.5299   27.3547    3.1477 H         1 UNK         0.0809 
     92 H92        24.6183   27.6218    1.7912 H         1 UNK         0.0809 
     93 H93        23.1049   26.7507    1.5551 H         1 UNK         0.0809 
     94 H94        25.8989   25.4693    0.8518 H         1 UNK         0.2990 
     95 H95        25.8003   22.7623   -0.5621 H         1 UNK         0.0690 
     96 H96        24.4805   22.8695   -2.6992 H         1 UNK         0.0788 
     97 H97        23.2905   23.8990   -1.9034 H         1 UNK         0.0788 
     98 H98        23.5327   22.2469   -1.3603 H         1 UNK         0.0788 
     99 H99        26.9442   24.4389   -1.4245 H         1 UNK         0.2993 
    100 H100       26.7030   26.9736   -3.1193 H         1 UNK         0.0949 
    101 H101       26.4700   28.3298   -0.3751 H         1 UNK         0.0767 
    102 H102       27.1694   29.0397   -1.8307 H         1 UNK         0.0767 
    103 H103       25.4633   28.6806   -1.7696 H         1 UNK         0.0767 
    104 H104       28.7184   26.3024   -2.4457 H         1 UNK         0.3013 
    105 H105       28.3069   27.2982    2.0708 H         1 UNK         0.3121 
    106 H106       29.1316   29.6637    3.6657 H         1 UNK         0.0774 
    107 H107       27.1978   30.9533    2.7379 H         1 UNK         0.0815 
    108 H108       26.5574   29.4833    1.9940 H         1 UNK         0.0815 
    109 H109       26.6510   29.6277    3.7413 H         1 UNK         0.0815 
    110 H110       27.8442   30.4866    0.6922 H         1 UNK         0.2987 
    111 H111       28.6461   31.3199   -1.1975 H         1 UNK         0.0949 
    112 H112       29.4254   28.9410   -1.6630 H         1 UNK         0.0806 
    113 H113       30.3674   30.1727   -2.4795 H         1 UNK         0.0806 
    114 H114       31.0132   29.3890   -1.0490 H         1 UNK         0.0806 
    115 H115       29.4431   32.4182    1.3835 H         1 UNK         0.3010 
    116 H116       30.5642   34.0644    2.3182 H         1 UNK         0.0829 
    117 H117       31.6509   34.8137   -0.4456 H         1 UNK         0.0813 
    118 H118       30.0855   35.3152    0.1935 H         1 UNK         0.0813 
    119 H119       31.5659   35.8527    0.9664 H         1 UNK         0.0813 
    120 H120       31.9809   31.3624    1.6873 H         1 UNK         0.3038 
    121 H121       34.8105   32.0349    2.1333 H         1 UNK         0.0769 
    122 H122       34.1947   30.0458    0.7513 H         1 UNK         0.0811 
    123 H123       33.2908   29.3648    2.1001 H         1 UNK         0.0811 
    124 H124       35.0363   29.5354    2.2064 H         1 UNK         0.0811 
    125 H125       35.9132   31.2439    4.0616 H         1 UNK         0.3204 
    126 H126       34.5290   31.8820    6.5318 H         1 UNK         0.0748 
    127 H127       37.4150   30.9947    6.0160 H         1 UNK         0.0771 
    128 H128       36.8459   32.6639    6.0688 H         1 UNK         0.0771 
    129 H129       36.7934   31.6734    7.5147 H         1 UNK         0.0771 
    130 H130       33.1853   29.7674    5.5748 H         1 UNK         0.2980 
    131 H131       34.0709   27.2312    6.6896 H         1 UNK         0.0545 
    132 H132       32.2001   26.9262    9.7076 H         1 UNK         0.3459 
    133 H133       33.0255   26.0467    8.4490 H         1 UNK         0.3459 
    134 H134       31.4143   28.1000    5.4465 H         1 UNK         0.0616 
    135 H135       31.7360   26.4710    5.9673 H         1 UNK         0.0616 
    136 H136       33.9230   25.1920    5.2384 H         1 UNK         0.0634 
    137 H137       34.4813   25.2068    3.5883 H         1 UNK         0.0634 
@<TRIPOS>BOND
     1    1    2 1    
     2    1   72 1    
     3    1   73 1    
     4    1   74 1    
     5    2    3 2    
     6    2    4 am   BACKBONE|DICT|INTERRES
     7    4    5 1    
     8    4   75 1    
     9    5    6 1    
    10    5   35 1    
    11    5   76 1    
    12    6    7 1    
    13    6   77 1    
    14    6   78 1    
    15    7    8 1    
    16    8    9 1    
    17    8   79 1    
    18    8   80 1    
    19    9   10 ar   
    20    9   14 ar   
    21   10   11 ar   
    22   10   81 1    
    23   11   12 ar   
    24   11   71 1    
    25   12   13 ar   
    26   12   82 1    
    27   13   14 ar   
    28   13   15 1    
    29   14   83 1    
    30   15   16 1    
    31   15   84 1    
    32   15   85 1    
    33   16   17 1    
    34   17   18 1    
    35   17   86 1    
    36   17   87 1    
    37   18   19 1    
    38   18   37 1    
    39   18   88 1    
    40   19   20 am   BACKBONE|DICT|INTERRES
    41   19   89 1    
    42   20   21 2    
    43   20   22 1    
    44   22   23 1    
    45   22   24 1    
    46   22   90 1    
    47   23   91 1    
    48   23   92 1    
    49   23   93 1    
    50   24   25 am   BACKBONE|DICT|INTERRES
    51   24   94 1    
    52   25   26 2    
    53   25   27 1    
    54   27   28 1    
    55   27   29 1    
    56   27   95 1    
    57   28   96 1    
    58   28   97 1    
    59   28   98 1    
    60   29   30 am   BACKBONE|DICT|INTERRES
    61   29   99 1    
    62   30   31 2    
    63   30   32 1    
    64   32   33 1    
    65   32   34 1    
    66   32  100 1    
    67   33  101 1    
    68   33  102 1    
    69   33  103 1    
    70   34   35 am   BACKBONE|DICT|INTERRES
    71   34  104 1    
    72   35   36 2    
    73   37   38 2    
    74   37   39 am   BACKBONE|DICT|INTERRES
    75   39   40 1    
    76   39  105 1    
    77   40   41 1    
    78   40   42 1    
    79   40  106 1    
    80   41  107 1    
    81   41  108 1    
    82   41  109 1    
    83   42   43 2    
    84   42   44 am   BACKBONE|DICT|INTERRES
    85   44   45 1    
    86   44  110 1    
    87   45   46 1    
    88   45   47 1    
    89   45  111 1    
    90   46  112 1    
    91   46  113 1    
    92   46  114 1    
    93   47   48 2    
    94   47   49 am   BACKBONE|DICT|INTERRES
    95   49   50 1    
    96   49  115 1    
    97   50   51 1    
    98   50   52 1    
    99   50  116 1    
   100   51  117 1    
   101   51  118 1    
   102   51  119 1    
   103   52   53 2    
   104   52   54 am   BACKBONE|DICT|INTERRES
   105   54   55 1    
   106   54  120 1    
   107   55   56 1    
   108   55   57 1    
   109   55  121 1    
   110   56  122 1    
   111   56  123 1    
   112   56  124 1    
   113   57   58 2    
   114   57   59 am   BACKBONE|DICT|INTERRES
   115   59   60 1    
   116   59  125 1    
   117   60   61 1    
   118   60   62 1    
   119   60  126 1    
   120   61  127 1    
   121   61  128 1    
   122   61  129 1    
   123   62   63 2    
   124   62   64 am   BACKBONE|DICT|INTERRES
   125   64   65 1    
   126   64  130 1    
   127   65   66 1    
   128   65   69 1    
   129   65  131 1    
   130   66   67 am   BACKBONE|DICT|INTERRES
   131   66   68 2    
   132   67  132 1    
   133   67  133 1    
   134   69   70 1    
   135   69  134 1    
   136   69  135 1    
   137   70   71 1    
   138   71  136 1    
   139   71  137 1    
@<TRIPOS>SUBSTRUCTURE
     1 UNK         1 GROUP             0       ****    0 ROOT    
