@<TRIPOS>MOLECULE
3R136
137   139    1
SMALL
USER_CHARGES


@<TRIPOS>ATOM
      1 CA         25.1368   26.9494    3.4996 C.3       0 UNK        -0.1979 
      2 C          25.7495   25.5594    3.4113 C.2       0 UNK         0.4864 
      3 O          25.2928   24.6460    4.0994 O.2       0 UNK        -0.5359 
      4 N          26.7851   25.3981    2.5779 N.am      1 UNK        -0.4318 
      5 CA         27.4666   24.1277    2.3113 C.3       1 UNK         0.0824 
      6 C6         28.8139   24.3762    1.5923 C.3       12 UNK        -0.0944 
      7 S7         29.9027   22.9105    1.5502 S.3       12 UNK        -0.2672 
      8 C8         31.2629   23.4100    2.6638 C.3       12 UNK         0.0333 
      9 C9         32.0809   24.6264    2.2198 C.ar      12 UNK        -0.0807 
     10 C10        32.9151   25.2411    3.1600 C.ar      12 UNK        -0.0894 
     11 C11        33.6574   26.3779    2.8266 C.ar      12 UNK        -0.0804 
     12 C12        33.5686   26.8970    1.5323 C.ar      12 UNK        -0.0824 
     13 C13        32.7609   26.2837    0.5732 C.ar      12 UNK        -0.0762 
     14 C14        32.0279   25.1459    0.9179 C.ar      12 UNK        -0.0782 
     15 C15        32.6934   26.8533   -0.8351 C.3       12 UNK         0.0230 
     16 S16        31.5953   28.3006   -0.9195 S.3       12 UNK        -0.2608 
     17 C17        29.9598   27.5154   -1.1004 C.3       12 UNK        -0.0989 
     18 CA         28.8136   28.5148   -0.7854 C.3       5 UNK         0.0716 
     19 N          27.6470   28.3817   -1.6634 N.am      5 UNK        -0.4135 
     20 C          26.9160   27.2904   -1.9240 C.2       4 UNK         0.5031 
     21 O          27.1260   26.1640   -1.4613 O.2       4 UNK        -0.5229 
     22 CA         25.7629   27.5039   -2.9157 C.3       4 UNK         0.0329 
     23 CB         26.2844   27.7110   -4.3502 C.3       4 UNK        -0.2001 
     24 N          24.8914   26.3373   -2.8828 N.am      4 UNK        -0.4303 
     25 C          23.5683   26.3278   -3.0822 C.2       3 UNK         0.5044 
     26 O          22.9169   27.3254   -3.3949 O.2       3 UNK        -0.5152 
     27 CA         22.8399   24.9785   -2.9064 C.3       3 UNK         0.0319 
     28 CB         22.4300   24.4061   -4.2735 C.3       3 UNK        -0.2001 
     29 N          23.6326   23.9740   -2.1878 N.am      3 UNK        -0.4354 
     30 C          23.9453   24.0353   -0.8864 C.2       2 UNK         0.4964 
     31 O          23.5161   24.9043   -0.1247 O.2       2 UNK        -0.5047 
     32 CA         24.9306   22.9879   -0.3491 C.3       2 UNK         0.0288 
     33 CB         25.6611   22.1706   -1.4389 C.3       2 UNK        -0.2113 
     34 N          25.9022   23.6873    0.4840 N.am      2 UNK        -0.4145 
     35 C          26.5576   23.1616    1.5239 C.2       1 UNK         0.5006 
     36 O          26.4478   21.9874    1.8841 O.2       1 UNK        -0.5103 
     37 C          28.4167   28.5100    0.7043 C.2       5 UNK         0.5055 
     38 O          27.7417   27.5884    1.1671 O.2       5 UNK        -0.5220 
     39 N          28.8389   29.5492    1.4338 N.am      6 UNK        -0.4450 
     40 CA         28.5829   29.7086    2.8629 C.3       6 UNK         0.0367 
     41 CB         28.6366   31.2027    3.2230 C.3       6 UNK        -0.1929 
     42 C          29.6093   28.8970    3.6649 C.2       6 UNK         0.5070 
     43 O          30.7842   29.2713    3.6960 O.2       6 UNK        -0.5237 
     44 N          29.1503   27.8029    4.2883 N.am      7 UNK        -0.4739 
     45 CA         29.9632   26.8906    5.0976 C.3       7 UNK         0.0276 
     46 CB         29.0776   25.7668    5.6562 C.3       7 UNK        -0.1927 
     47 C          30.6951   27.6202    6.2359 C.2       7 UNK         0.5013 
     48 O          30.0722   28.4099    6.9504 O.2       7 UNK        -0.5193 
     49 N          32.0072   27.3721    6.3445 N.am      8 UNK        -0.4253 
     50 CA         32.9982   28.0337    7.2064 C.3       8 UNK         0.0242 
     51 CB         32.6703   27.8614    8.7022 C.3       8 UNK        -0.2000 
     52 C          33.2445   29.5128    6.8541 C.2       8 UNK         0.4948 
     53 O          34.4008   29.9063    6.7034 O.2       8 UNK        -0.5275 
     54 N          32.1724   30.2997    6.7033 N.am      9 UNK        -0.4246 
     55 CA         32.1906   31.7391    6.4302 C.3       9 UNK         0.0261 
     56 CB         30.7515   32.2744    6.4331 C.3       9 UNK        -0.1959 
     57 C          32.9175   32.1348    5.1331 C.2       9 UNK         0.5033 
     58 O          33.5912   33.1659    5.1208 O.2       9 UNK        -0.5390 
     59 N          32.8007   31.3132    4.0796 N.am      10 UNK        -0.4215 
     60 CA         33.5227   31.5010    2.8168 C.3       10 UNK         0.0240 
     61 CB         32.8204   30.7016    1.7076 C.3       10 UNK        -0.1982 
     62 C          35.0172   31.1278    2.8923 C.2       10 UNK         0.4970 
     63 O          35.7699   31.5291    2.0037 O.2       10 UNK        -0.4916 
     64 N          35.4198   30.3706    3.9206 N.am      11 UNK        -0.4279 
     65 CA         36.8016   29.9249    4.1523 C.3       11 UNK         0.1003 
     66 C          37.5336   30.8348    5.1722 C.2       11 UNK         0.5709 
     67 N          36.8794   31.2666    6.2434 N.am      11 UNK        -0.7358 
     68 O          38.7038   31.1590    4.9848 O.2       11 UNK        -0.4999 
     69 C69        36.8591   28.4406    4.6009 C.3       12 UNK        -0.0954 
     70 S70        36.2371   27.3032    3.3191 S.3       12 UNK        -0.2268 
     71 C71        34.5183   27.0713    3.8727 C.3       12 UNK         0.0203 
     72 H72        25.2856   27.3643    4.4960 H         1 UNK         0.0888 
     73 H73        25.5732   27.6352    2.7739 H         1 UNK         0.0888 
     74 H74        24.0654   26.8974    3.3077 H         1 UNK         0.0888 
     75 H75        27.1143   26.1960    2.0306 H         1 UNK         0.3017 
     76 H76        27.6764   23.6603    3.2755 H         1 UNK         0.0873 
     77 H77        29.3420   25.1925    2.0882 H         1 UNK         0.0745 
     78 H78        28.6493   24.7166    0.5680 H         1 UNK         0.0745 
     79 H79        30.8380   23.5991    3.6511 H         1 UNK         0.0705 
     80 H80        31.9402   22.5624    2.7758 H         1 UNK         0.0705 
     81 H81        32.9747   24.8360    4.1609 H         1 UNK         0.1334 
     82 H82        34.1338   27.7805    1.2685 H         1 UNK         0.1417 
     83 H83        31.4105   24.6778    0.1650 H         1 UNK         0.1562 
     84 H84        32.3663   26.0966   -1.5501 H         1 UNK         0.0748 
     85 H85        33.6937   27.1548   -1.1496 H         1 UNK         0.0748 
     86 H86        29.8930   26.6193   -0.4810 H         1 UNK         0.0940 
     87 H87        29.8902   27.1673   -2.1321 H         1 UNK         0.0940 
     88 H88        29.1724   29.5193   -1.0174 H         1 UNK         0.0703 
     89 H89        27.3560   29.2452   -2.0993 H         1 UNK         0.3081 
     90 H90        25.2017   28.3851   -2.5967 H         1 UNK         0.0719 
     91 H91        26.8670   26.8547   -4.6925 H         1 UNK         0.0809 
     92 H92        25.4634   27.8574   -5.0524 H         1 UNK         0.0809 
     93 H93        26.9251   28.5908   -4.4187 H         1 UNK         0.0809 
     94 H94        25.3490   25.4922   -2.5670 H         1 UNK         0.2990 
     95 H95        21.9326   25.1722   -2.3302 H         1 UNK         0.0690 
     96 H96        21.8520   23.4882   -4.1632 H         1 UNK         0.0788 
     97 H97        23.2981   24.1856   -4.8960 H         1 UNK         0.0788 
     98 H98        21.8073   25.1140   -4.8225 H         1 UNK         0.0788 
     99 H99        24.0278   23.2271   -2.7416 H         1 UNK         0.2993 
    100 H100       24.3496   22.3052    0.2749 H         1 UNK         0.0949 
    101 H101       24.9619   21.5881   -2.0400 H         1 UNK         0.0767 
    102 H102       26.2359   22.8111   -2.1096 H         1 UNK         0.0767 
    103 H103       26.3566   21.4587   -0.9936 H         1 UNK         0.0767 
    104 H104       26.0231   24.6721    0.2802 H         1 UNK         0.3013 
    105 H105       29.4405   30.2376    1.0056 H         1 UNK         0.3121 
    106 H106       27.5771   29.3488    3.0908 H         1 UNK         0.0774 
    107 H107       28.3550   31.3557    4.2648 H         1 UNK         0.0815 
    108 H108       27.9399   31.7818    2.6168 H         1 UNK         0.0815 
    109 H109       29.6328   31.6248    3.0828 H         1 UNK         0.0815 
    110 H110       28.1690   27.5833    4.2158 H         1 UNK         0.2987 
    111 H111       30.7012   26.4476    4.4271 H         1 UNK         0.0949 
    112 H112       28.2781   26.1585    6.2865 H         1 UNK         0.0806 
    113 H113       28.6217   25.1858    4.8566 H         1 UNK         0.0806 
    114 H114       29.6613   25.0734    6.2632 H         1 UNK         0.0806 
    115 H115       32.3987   26.7078    5.6938 H         1 UNK         0.3010 
    116 H116       33.9404   27.5140    7.0252 H         1 UNK         0.0829 
    117 H117       31.7522   28.3761    8.9864 H         1 UNK         0.0813 
    118 H118       32.5590   26.8093    8.9644 H         1 UNK         0.0813 
    119 H119       33.4709   28.2667    9.3225 H         1 UNK         0.0813 
    120 H120       31.2624   29.8592    6.8187 H         1 UNK         0.3038 
    121 H121       32.7283   32.2127    7.2543 H         1 UNK         0.0769 
    122 H122       30.7280   33.3444    6.2211 H         1 UNK         0.0811 
    123 H123       30.1425   31.7761    5.6807 H         1 UNK         0.0811 
    124 H124       30.2746   32.1252    7.4020 H         1 UNK         0.0811 
    125 H125       32.1737   30.5115    4.1331 H         1 UNK         0.3204 
    126 H126       33.4718   32.5580    2.5469 H         1 UNK         0.0748 
    127 H127       32.7895   29.6371    1.9380 H         1 UNK         0.0771 
    128 H128       31.7938   31.0389    1.5668 H         1 UNK         0.0771 
    129 H129       33.3320   30.8145    0.7508 H         1 UNK         0.0771 
    130 H130       34.7649   30.1581    4.6617 H         1 UNK         0.2980 
    131 H131       37.3615   29.9959    3.2176 H         1 UNK         0.0545 
    132 H132       37.3486   31.8639    6.9046 H         1 UNK         0.3459 
    133 H133       35.9392   30.9316    6.4363 H         1 UNK         0.3459 
    134 H134       37.8897   28.1499    4.8130 H         1 UNK         0.0616 
    135 H135       36.3051   28.2881    5.5288 H         1 UNK         0.0616 
    136 H136       34.0661   28.0366    4.0988 H         1 UNK         0.0634 
    137 H137       34.5342   26.5027    4.8031 H         1 UNK         0.0634 
@<TRIPOS>BOND
     1    1    2 1    
     2    1   72 1    
     3    1   73 1    
     4    1   74 1    
     5    2    3 2    
     6    2    4 am   BACKBONE|DICT|INTERRES
     7    4    5 1    
     8    4   75 1    
     9    5    6 1    
    10    5   35 1    
    11    5   76 1    
    12    6    7 1    
    13    6   77 1    
    14    6   78 1    
    15    7    8 1    
    16    8    9 1    
    17    8   79 1    
    18    8   80 1    
    19    9   10 ar   
    20    9   14 ar   
    21   10   11 ar   
    22   10   81 1    
    23   11   12 ar   
    24   11   71 1    
    25   12   13 ar   
    26   12   82 1    
    27   13   14 ar   
    28   13   15 1    
    29   14   83 1    
    30   15   16 1    
    31   15   84 1    
    32   15   85 1    
    33   16   17 1    
    34   17   18 1    
    35   17   86 1    
    36   17   87 1    
    37   18   19 1    
    38   18   37 1    
    39   18   88 1    
    40   19   20 am   BACKBONE|DICT|INTERRES
    41   19   89 1    
    42   20   21 2    
    43   20   22 1    
    44   22   23 1    
    45   22   24 1    
    46   22   90 1    
    47   23   91 1    
    48   23   92 1    
    49   23   93 1    
    50   24   25 am   BACKBONE|DICT|INTERRES
    51   24   94 1    
    52   25   26 2    
    53   25   27 1    
    54   27   28 1    
    55   27   29 1    
    56   27   95 1    
    57   28   96 1    
    58   28   97 1    
    59   28   98 1    
    60   29   30 am   BACKBONE|DICT|INTERRES
    61   29   99 1    
    62   30   31 2    
    63   30   32 1    
    64   32   33 1    
    65   32   34 1    
    66   32  100 1    
    67   33  101 1    
    68   33  102 1    
    69   33  103 1    
    70   34   35 am   BACKBONE|DICT|INTERRES
    71   34  104 1    
    72   35   36 2    
    73   37   38 2    
    74   37   39 am   BACKBONE|DICT|INTERRES
    75   39   40 1    
    76   39  105 1    
    77   40   41 1    
    78   40   42 1    
    79   40  106 1    
    80   41  107 1    
    81   41  108 1    
    82   41  109 1    
    83   42   43 2    
    84   42   44 am   BACKBONE|DICT|INTERRES
    85   44   45 1    
    86   44  110 1    
    87   45   46 1    
    88   45   47 1    
    89   45  111 1    
    90   46  112 1    
    91   46  113 1    
    92   46  114 1    
    93   47   48 2    
    94   47   49 am   BACKBONE|DICT|INTERRES
    95   49   50 1    
    96   49  115 1    
    97   50   51 1    
    98   50   52 1    
    99   50  116 1    
   100   51  117 1    
   101   51  118 1    
   102   51  119 1    
   103   52   53 2    
   104   52   54 am   BACKBONE|DICT|INTERRES
   105   54   55 1    
   106   54  120 1    
   107   55   56 1    
   108   55   57 1    
   109   55  121 1    
   110   56  122 1    
   111   56  123 1    
   112   56  124 1    
   113   57   58 2    
   114   57   59 am   BACKBONE|DICT|INTERRES
   115   59   60 1    
   116   59  125 1    
   117   60   61 1    
   118   60   62 1    
   119   60  126 1    
   120   61  127 1    
   121   61  128 1    
   122   61  129 1    
   123   62   63 2    
   124   62   64 am   BACKBONE|DICT|INTERRES
   125   64   65 1    
   126   64  130 1    
   127   65   66 1    
   128   65   69 1    
   129   65  131 1    
   130   66   67 am   BACKBONE|DICT|INTERRES
   131   66   68 2    
   132   67  132 1    
   133   67  133 1    
   134   69   70 1    
   135   69  134 1    
   136   69  135 1    
   137   70   71 1    
   138   71  136 1    
   139   71  137 1    
@<TRIPOS>SUBSTRUCTURE
     1 UNK         1 GROUP             0       ****    0 ROOT    
