@<TRIPOS>MOLECULE
3R136
137   139    1
SMALL
USER_CHARGES


@<TRIPOS>ATOM
      1 CA         27.9085   20.8190    0.9099 C.3       0 UNK        -0.1979 
      2 C          28.8318   21.0553   -0.2762 C.2       0 UNK         0.4864 
      3 O          29.6090   20.1690   -0.6337 O.2       0 UNK        -0.5359 
      4 N          28.7525   22.2431   -0.8824 N.am      1 UNK        -0.4318 
      5 CA         29.5508   22.6607   -2.0353 C.3       1 UNK         0.0824 
      6 C6         31.0406   22.9671   -1.7015 C.3       12 UNK        -0.0944 
      7 S7         31.2982   24.1393   -0.3204 S.3       12 UNK        -0.2672 
      8 C8         31.9175   23.0458    0.9955 C.3       12 UNK         0.0333 
      9 C9         32.0688   23.8163    2.2978 C.ar      12 UNK        -0.0807 
     10 C10        33.0401   24.8157    2.4018 C.ar      12 UNK        -0.0894 
     11 C11        33.1511   25.5817    3.5641 C.ar      12 UNK        -0.0804 
     12 C12        32.3018   25.3183    4.6418 C.ar      12 UNK        -0.0824 
     13 C13        31.3461   24.3020    4.5642 C.ar      12 UNK        -0.0762 
     14 C14        31.2284   23.5566    3.3860 C.ar      12 UNK        -0.0782 
     15 C15        30.4539   24.0010    5.7604 C.3       12 UNK         0.0230 
     16 S16        28.7669   24.6545    5.5557 S.3       12 UNK        -0.2608 
     17 C17        29.0143   26.4612    5.6823 C.3       12 UNK        -0.0989 
     18 CA         28.6692   27.1888    4.3602 C.3       5 UNK         0.0716 
     19 N          27.3003   26.8994    3.9069 N.am      5 UNK        -0.4135 
     20 C          26.8043   27.2648    2.7197 C.2       4 UNK         0.5031 
     21 O          27.4557   27.8723    1.8658 O.2       4 UNK        -0.5229 
     22 CA         25.3195   26.9834    2.4755 C.3       4 UNK         0.0329 
     23 CB         24.4439   28.0498    3.1612 C.3       4 UNK        -0.2001 
     24 N          25.0961   27.0041    1.0362 N.am      4 UNK        -0.4303 
     25 C          24.0730   26.4456    0.3816 C.2       3 UNK         0.5044 
     26 O          23.1210   25.8958    0.9374 O.2       3 UNK        -0.5152 
     27 CA         24.1184   26.4967   -1.1596 C.3       3 UNK         0.0319 
     28 CB         23.2593   27.6616   -1.6783 C.3       3 UNK        -0.2001 
     29 N          25.4689   26.6083   -1.7280 N.am      3 UNK        -0.4354 
     30 C          26.4486   25.7075   -1.5676 C.2       2 UNK         0.4964 
     31 O          26.3199   24.6675   -0.9136 O.2       2 UNK        -0.5047 
     32 CA         27.8016   26.0486   -2.2218 C.3       2 UNK         0.0288 
     33 CB         28.3976   27.3381   -1.6266 C.3       2 UNK        -0.2113 
     34 N          28.7496   24.9584   -2.0044 N.am      2 UNK        -0.4145 
     35 C          28.7991   23.8203   -2.7062 C.2       1 UNK         0.5006 
     36 O          28.2168   23.6422   -3.7779 O.2       1 UNK        -0.5103 
     37 C          28.9316   28.7080    4.4784 C.2       5 UNK         0.5055 
     38 O          30.0552   29.1516    4.2480 O.2       5 UNK        -0.5220 
     39 N          27.8843   29.4901    4.7809 N.am      6 UNK        -0.4450 
     40 CA         27.9123   30.9549    4.7672 C.3       6 UNK         0.0367 
     41 CB         26.6308   31.4942    5.4224 C.3       6 UNK        -0.1929 
     42 C          28.0818   31.5450    3.3539 C.2       6 UNK         0.5070 
     43 O          28.6964   32.6024    3.2168 O.2       6 UNK        -0.5237 
     44 N          27.5517   30.8559    2.3319 N.am      7 UNK        -0.4739 
     45 CA         27.6924   31.2321    0.9222 C.3       7 UNK         0.0276 
     46 CB         26.5432   30.6215    0.1016 C.3       7 UNK        -0.1927 
     47 C          29.0572   30.8177    0.3476 C.2       7 UNK         0.5013 
     48 O          29.5587   31.4960   -0.5494 O.2       7 UNK        -0.5193 
     49 N          29.6398   29.7321    0.8805 N.am      8 UNK        -0.4253 
     50 CA         30.9853   29.2551    0.5450 C.3       8 UNK         0.0242 
     51 CB         31.2124   27.8649    1.1647 C.3       8 UNK        -0.2000 
     52 C          32.1008   30.2270    0.9786 C.2       8 UNK         0.4948 
     53 O          33.1241   30.2944    0.2952 O.2       8 UNK        -0.5275 
     54 N          31.8671   30.9605    2.0812 N.am      9 UNK        -0.4246 
     55 CA         32.7681   31.9107    2.7542 C.3       9 UNK         0.0261 
     56 CB         33.2146   33.0384    1.7989 C.3       9 UNK        -0.1959 
     57 C          33.9613   31.2115    3.4347 C.2       9 UNK         0.5033 
     58 O          34.0904   29.9912    3.3416 O.2       9 UNK        -0.5390 
     59 N          34.7828   31.9787    4.1687 N.am      10 UNK        -0.4215 
     60 CA         35.8963   31.5179    5.0159 C.3       10 UNK         0.0240 
     61 CB         37.0408   30.9143    4.1696 C.3       10 UNK        -0.1982 
     62 C          35.4002   30.5830    6.1372 C.2       10 UNK         0.4970 
     63 O          35.0022   31.0767    7.1931 O.2       10 UNK        -0.4916 
     64 N          35.3855   29.2696    5.8735 N.am      11 UNK        -0.4279 
     65 CA         34.6711   28.2552    6.6665 C.3       11 UNK         0.1003 
     66 C          33.1183   28.3958    6.6539 C.2       11 UNK         0.5709 
     67 N          32.5356   29.1314    5.7171 N.am      11 UNK        -0.7358 
     68 O          32.4401   27.8212    7.5017 O.2       11 UNK        -0.4999 
     69 C69        35.1340   26.7990    6.3394 C.3       12 UNK        -0.0954 
     70 S70        35.6181   26.4256    4.6088 S.3       12 UNK        -0.2268 
     71 C71        34.1278   26.7455    3.6112 C.3       12 UNK         0.0203 
     72 H72        28.4943   20.6133    1.8054 H         1 UNK         0.0888 
     73 H73        27.2745   21.6827    1.1109 H         1 UNK         0.0888 
     74 H74        27.2634   19.9618    0.7189 H         1 UNK         0.0888 
     75 H75        28.0586   22.9170   -0.5806 H         1 UNK         0.3017 
     76 H76        29.5417   21.8392   -2.7553 H         1 UNK         0.0873 
     77 H77        31.5568   22.0341   -1.4705 H         1 UNK         0.0745 
     78 H78        31.5482   23.3627   -2.5831 H         1 UNK         0.0745 
     79 H79        31.2361   22.2036    1.1215 H         1 UNK         0.0705 
     80 H80        32.8818   22.6294    0.7007 H         1 UNK         0.0705 
     81 H81        33.6795   25.0254    1.5550 H         1 UNK         0.1334 
     82 H82        32.3750   25.9105    5.5406 H         1 UNK         0.1417 
     83 H83        30.4759   22.7829    3.3166 H         1 UNK         0.1562 
     84 H84        30.8875   24.3988    6.6796 H         1 UNK         0.0748 
     85 H85        30.3947   22.9206    5.8993 H         1 UNK         0.0748 
     86 H86        30.0450   26.6700    5.9753 H         1 UNK         0.0940 
     87 H87        28.3915   26.8310    6.4992 H         1 UNK         0.0940 
     88 H88        29.3476   26.8140    3.5900 H         1 UNK         0.0703 
     89 H89        26.7173   26.3853    4.5517 H         1 UNK         0.3081 
     90 H90        25.0799   25.9912    2.8636 H         1 UNK         0.0719 
     91 H91        24.6632   29.0516    2.7892 H         1 UNK         0.0809 
     92 H92        23.3835   27.8598    2.9946 H         1 UNK         0.0809 
     93 H93        24.5999   28.0574    4.2405 H         1 UNK         0.0809 
     94 H94        25.8664   27.3977    0.5108 H         1 UNK         0.2990 
     95 H95        23.6857   25.5630   -1.5249 H         1 UNK         0.0690 
     96 H96        22.2390   27.5941   -1.2976 H         1 UNK         0.0788 
     97 H97        23.1967   27.6566   -2.7667 H         1 UNK         0.0788 
     98 H98        23.6593   28.6276   -1.3672 H         1 UNK         0.0788 
     99 H99        25.6553   27.4330   -2.2805 H         1 UNK         0.2993 
    100 H100       27.6457   26.1840   -3.2944 H         1 UNK         0.0949 
    101 H101       29.3909   27.5386   -2.0288 H         1 UNK         0.0767 
    102 H102       27.7814   28.2082   -1.8544 H         1 UNK         0.0767 
    103 H103       28.4859   27.2761   -0.5419 H         1 UNK         0.0767 
    104 H104       29.2802   24.9904   -1.1434 H         1 UNK         0.3013 
    105 H105       26.9971   29.0523    4.9790 H         1 UNK         0.3121 
    106 H106       28.7664   31.2818    5.3647 H         1 UNK         0.0774 
    107 H107       26.6365   32.5849    5.4478 H         1 UNK         0.0815 
    108 H108       25.7367   31.1863    4.8788 H         1 UNK         0.0815 
    109 H109       26.5353   31.1493    6.4521 H         1 UNK         0.0815 
    110 H110       27.1177   29.9618    2.5155 H         1 UNK         0.2987 
    111 H111       27.6193   32.3194    0.8434 H         1 UNK         0.0949 
    112 H112       26.5841   29.5334    0.0849 H         1 UNK         0.0806 
    113 H113       25.5711   30.9155    0.4974 H         1 UNK         0.0806 
    114 H114       26.5867   30.9603   -0.9343 H         1 UNK         0.0806 
    115 H115       29.1147   29.1940    1.5594 H         1 UNK         0.3010 
    116 H116       31.0359   29.1553   -0.5413 H         1 UNK         0.0829 
    117 H117       30.4286   27.1612    0.8857 H         1 UNK         0.0813 
    118 H118       32.1596   27.4421    0.8274 H         1 UNK         0.0813 
    119 H119       31.2533   27.9068    2.2532 H         1 UNK         0.0813 
    120 H120       31.0129   30.7549    2.5829 H         1 UNK         0.3038 
    121 H121       32.1733   32.3600    3.5510 H         1 UNK         0.0769 
    122 H122       33.9256   32.6827    1.0525 H         1 UNK         0.0811 
    123 H123       33.6977   33.8512    2.3416 H         1 UNK         0.0811 
    124 H124       32.3633   33.4686    1.2709 H         1 UNK         0.0811 
    125 H125       34.5804   32.9673    4.2272 H         1 UNK         0.3204 
    126 H126       36.2950   32.4050    5.5107 H         1 UNK         0.0748 
    127 H127       37.8604   30.5776    4.8059 H         1 UNK         0.0771 
    128 H128       36.7207   30.0615    3.5705 H         1 UNK         0.0771 
    129 H129       37.4506   31.6571    3.4852 H         1 UNK         0.0771 
    130 H130       35.6763   28.9694    4.9536 H         1 UNK         0.2980 
    131 H131       34.9467   28.4379    7.7070 H         1 UNK         0.0545 
    132 H132       31.5284   29.1844    5.6472 H         1 UNK         0.3459 
    133 H133       33.0993   29.5107    4.9655 H         1 UNK         0.3459 
    134 H134       36.0237   26.5926    6.9360 H         1 UNK         0.0616 
    135 H135       34.4081   26.0559    6.6726 H         1 UNK         0.0616 
    136 H136       34.4523   26.9991    2.6008 H         1 UNK         0.0634 
    137 H137       33.6066   27.6244    3.9676 H         1 UNK         0.0634 
@<TRIPOS>BOND
     1    1    2 1    
     2    1   72 1    
     3    1   73 1    
     4    1   74 1    
     5    2    3 2    
     6    2    4 am   BACKBONE|DICT|INTERRES
     7    4    5 1    
     8    4   75 1    
     9    5    6 1    
    10    5   35 1    
    11    5   76 1    
    12    6    7 1    
    13    6   77 1    
    14    6   78 1    
    15    7    8 1    
    16    8    9 1    
    17    8   79 1    
    18    8   80 1    
    19    9   10 ar   
    20    9   14 ar   
    21   10   11 ar   
    22   10   81 1    
    23   11   12 ar   
    24   11   71 1    
    25   12   13 ar   
    26   12   82 1    
    27   13   14 ar   
    28   13   15 1    
    29   14   83 1    
    30   15   16 1    
    31   15   84 1    
    32   15   85 1    
    33   16   17 1    
    34   17   18 1    
    35   17   86 1    
    36   17   87 1    
    37   18   19 1    
    38   18   37 1    
    39   18   88 1    
    40   19   20 am   BACKBONE|DICT|INTERRES
    41   19   89 1    
    42   20   21 2    
    43   20   22 1    
    44   22   23 1    
    45   22   24 1    
    46   22   90 1    
    47   23   91 1    
    48   23   92 1    
    49   23   93 1    
    50   24   25 am   BACKBONE|DICT|INTERRES
    51   24   94 1    
    52   25   26 2    
    53   25   27 1    
    54   27   28 1    
    55   27   29 1    
    56   27   95 1    
    57   28   96 1    
    58   28   97 1    
    59   28   98 1    
    60   29   30 am   BACKBONE|DICT|INTERRES
    61   29   99 1    
    62   30   31 2    
    63   30   32 1    
    64   32   33 1    
    65   32   34 1    
    66   32  100 1    
    67   33  101 1    
    68   33  102 1    
    69   33  103 1    
    70   34   35 am   BACKBONE|DICT|INTERRES
    71   34  104 1    
    72   35   36 2    
    73   37   38 2    
    74   37   39 am   BACKBONE|DICT|INTERRES
    75   39   40 1    
    76   39  105 1    
    77   40   41 1    
    78   40   42 1    
    79   40  106 1    
    80   41  107 1    
    81   41  108 1    
    82   41  109 1    
    83   42   43 2    
    84   42   44 am   BACKBONE|DICT|INTERRES
    85   44   45 1    
    86   44  110 1    
    87   45   46 1    
    88   45   47 1    
    89   45  111 1    
    90   46  112 1    
    91   46  113 1    
    92   46  114 1    
    93   47   48 2    
    94   47   49 am   BACKBONE|DICT|INTERRES
    95   49   50 1    
    96   49  115 1    
    97   50   51 1    
    98   50   52 1    
    99   50  116 1    
   100   51  117 1    
   101   51  118 1    
   102   51  119 1    
   103   52   53 2    
   104   52   54 am   BACKBONE|DICT|INTERRES
   105   54   55 1    
   106   54  120 1    
   107   55   56 1    
   108   55   57 1    
   109   55  121 1    
   110   56  122 1    
   111   56  123 1    
   112   56  124 1    
   113   57   58 2    
   114   57   59 am   BACKBONE|DICT|INTERRES
   115   59   60 1    
   116   59  125 1    
   117   60   61 1    
   118   60   62 1    
   119   60  126 1    
   120   61  127 1    
   121   61  128 1    
   122   61  129 1    
   123   62   63 2    
   124   62   64 am   BACKBONE|DICT|INTERRES
   125   64   65 1    
   126   64  130 1    
   127   65   66 1    
   128   65   69 1    
   129   65  131 1    
   130   66   67 am   BACKBONE|DICT|INTERRES
   131   66   68 2    
   132   67  132 1    
   133   67  133 1    
   134   69   70 1    
   135   69  134 1    
   136   69  135 1    
   137   70   71 1    
   138   71  136 1    
   139   71  137 1    
@<TRIPOS>SUBSTRUCTURE
     1 UNK         1 GROUP             0       ****    0 ROOT    
