@<TRIPOS>MOLECULE
3R136
137   139    1
SMALL
USER_CHARGES


@<TRIPOS>ATOM
      1 CA         27.8897   23.5883    2.6615 C.3       0 UNK        -0.1979 
      2 C          28.7951   23.4149    1.4525 C.2       0 UNK         0.4864 
      3 O          28.6634   22.4305    0.7247 O.2       0 UNK        -0.5359 
      4 N          29.7232   24.3606    1.2451 N.am      1 UNK        -0.4318 
      5 CA         30.7315   24.3525    0.1724 C.3       1 UNK         0.0824 
      6 C6         31.8013   25.4686    0.3345 C.3       12 UNK        -0.0944 
      7 S7         32.3100   25.7597    2.0661 S.3       12 UNK        -0.2672 
      8 C8         31.4539   27.3330    2.3890 C.3       12 UNK         0.0333 
      9 C9         31.0102   27.4518    3.8372 C.ar      12 UNK        -0.0807 
     10 C10        31.8994   27.9052    4.8135 C.ar      12 UNK        -0.0894 
     11 C11        31.4853   28.0328    6.1421 C.ar      12 UNK        -0.0804 
     12 C12        30.1672   27.7169    6.4849 C.ar      12 UNK        -0.0824 
     13 C13        29.2588   27.2684    5.5197 C.ar      12 UNK        -0.0762 
     14 C14        29.6963   27.1334    4.1949 C.ar      12 UNK        -0.0782 
     15 C15        27.8293   26.9497    5.9715 C.3       12 UNK         0.0230 
     16 S16        26.6641   26.3825    4.6810 S.3       12 UNK        -0.2608 
     17 C17        26.3236   27.9261    3.7667 C.3       12 UNK        -0.0989 
     18 CA         26.1730   27.6884    2.2368 C.3       5 UNK         0.0716 
     19 N          25.1150   26.7281    1.8944 N.am      5 UNK        -0.4135 
     20 C          23.7962   26.8752    2.0877 C.2       4 UNK         0.5031 
     21 O          23.2817   27.8646    2.6125 O.2       4 UNK        -0.5229 
     22 CA         22.9023   25.7262    1.5764 C.3       4 UNK         0.0329 
     23 CB         21.4017   25.9900    1.8050 C.3       4 UNK        -0.2001 
     24 N          23.1276   25.4790    0.1499 N.am      4 UNK        -0.4303 
     25 C          24.1368   24.7598   -0.3563 C.2       3 UNK         0.5044 
     26 O          24.9424   24.1485    0.3499 O.2       3 UNK        -0.5152 
     27 CA         24.3009   24.7489   -1.8930 C.3       3 UNK         0.0319 
     28 CB         23.5963   25.9287   -2.5993 C.3       3 UNK        -0.2001 
     29 N          25.7081   24.6872   -2.3125 N.am      3 UNK        -0.4354 
     30 C          26.6987   25.5077   -1.9338 C.2       2 UNK         0.4964 
     31 O          26.5636   26.4693   -1.1692 O.2       2 UNK        -0.5047 
     32 CA         28.0906   25.2026   -2.4890 C.3       2 UNK         0.0288 
     33 CB         28.5371   26.2809   -3.4913 C.3       2 UNK        -0.2113 
     34 N          28.9864   25.1605   -1.3422 N.am      2 UNK        -0.4145 
     35 C          30.0956   24.4191   -1.2335 C.2       1 UNK         0.5006 
     36 O          30.5999   23.7899   -2.1654 O.2       1 UNK        -0.5103 
     37 C          26.0141   29.0025    1.4383 C.2       5 UNK         0.5055 
     38 O          26.0096   30.0886    2.0224 O.2       5 UNK        -0.5220 
     39 N          25.8659   28.8771    0.1107 N.am      6 UNK        -0.4450 
     40 CA         25.8149   30.0084   -0.8198 C.3       6 UNK         0.0367 
     41 CB         25.1644   29.5683   -2.1405 C.3       6 UNK        -0.1929 
     42 C          27.2121   30.5975   -1.0714 C.2       6 UNK         0.5070 
     43 O          27.3450   31.8149   -1.2015 O.2       6 UNK        -0.5237 
     44 N          28.2263   29.7244   -1.1152 N.am      7 UNK        -0.4739 
     45 CA         29.6404   30.0972   -1.1161 C.3       7 UNK         0.0276 
     46 CB         30.4515   28.9820   -1.7967 C.3       7 UNK        -0.1927 
     47 C          30.1366   30.3255    0.3208 C.2       7 UNK         0.5013 
     48 O          29.5439   29.7993    1.2657 O.2       7 UNK        -0.5193 
     49 N          31.2405   31.0676    0.4473 N.am      8 UNK        -0.4253 
     50 CA         31.9692   31.2890    1.6950 C.3       8 UNK         0.0242 
     51 CB         31.9937   32.7949    2.0059 C.3       8 UNK        -0.2000 
     52 C          33.3948   30.7475    1.5326 C.2       8 UNK         0.4948 
     53 O          33.9227   30.7355    0.4171 O.2       8 UNK        -0.5275 
     54 N          33.9920   30.3216    2.6477 N.am      9 UNK        -0.4246 
     55 CA         35.3325   29.7521    2.7453 C.3       9 UNK         0.0261 
     56 CB         35.3357   28.3031    2.2164 C.3       9 UNK        -0.1959 
     57 C          35.7515   29.7923    4.2186 C.2       9 UNK         0.5033 
     58 O          34.8992   29.9934    5.0880 O.2       9 UNK        -0.5390 
     59 N          37.0418   29.5677    4.4873 N.am      10 UNK        -0.4215 
     60 CA         37.5940   29.4401    5.8375 C.3       10 UNK         0.0240 
     61 CB         39.0879   29.8155    5.8063 C.3       10 UNK        -0.1982 
     62 C          37.3529   28.0177    6.3762 C.2       10 UNK         0.4970 
     63 O          38.2792   27.2049    6.3954 O.2       10 UNK        -0.4916 
     64 N          36.1021   27.7296    6.7593 N.am      11 UNK        -0.4279 
     65 CA         35.6624   26.4130    7.2524 C.3       11 UNK         0.1003 
     66 C          36.1884   26.0075    8.6626 C.2       11 UNK         0.5709 
     67 N          36.7758   26.9101    9.4398 N.am      11 UNK        -0.7358 
     68 O          36.0737   24.8470    9.0502 O.2       11 UNK        -0.4999 
     69 C69        34.1286   26.2205    7.1010 C.3       12 UNK        -0.0954 
     70 S70        33.1051   27.2045    8.2553 S.3       12 UNK        -0.2268 
     71 C71        32.4510   28.5388    7.2045 C.3       12 UNK         0.0203 
     72 H72        28.3445   24.2324    3.4133 H         1 UNK         0.0888 
     73 H73        26.9370   24.0234    2.3611 H         1 UNK         0.0888 
     74 H74        27.6908   22.6236    3.1275 H         1 UNK         0.0888 
     75 H75        29.8319   25.1032    1.9192 H         1 UNK         0.3017 
     76 H76        31.2453   23.3912    0.2432 H         1 UNK         0.0873 
     77 H77        31.4614   26.4115   -0.0957 H         1 UNK         0.0745 
     78 H78        32.6939   25.2018   -0.2344 H         1 UNK         0.0745 
     79 H79        32.1137   28.1582    2.1245 H         1 UNK         0.0705 
     80 H80        30.5818   27.4230    1.7408 H         1 UNK         0.0705 
     81 H81        32.9148   28.1552    4.5396 H         1 UNK         0.1334 
     82 H82        29.8478   27.8229    7.5130 H         1 UNK         0.1417 
     83 H83        29.0178   26.7933    3.4286 H         1 UNK         0.1562 
     84 H84        27.4043   27.8276    6.4605 H         1 UNK         0.0748 
     85 H85        27.8803   26.1707    6.7336 H         1 UNK         0.0748 
     86 H86        27.1339   28.6330    3.9566 H         1 UNK         0.0940 
     87 H87        25.4235   28.3837    4.1808 H         1 UNK         0.0940 
     88 H88        27.1047   27.2455    1.8818 H         1 UNK         0.0703 
     89 H89        25.4158   25.8819    1.4237 H         1 UNK         0.3081 
     90 H90        23.1702   24.8322    2.1440 H         1 UNK         0.0719 
     91 H91        21.0609   26.8793    1.2733 H         1 UNK         0.0809 
     92 H92        20.7957   25.1470    1.4725 H         1 UNK         0.0809 
     93 H93        21.1887   26.1411    2.8642 H         1 UNK         0.0809 
     94 H94        22.5282   25.9778   -0.4918 H         1 UNK         0.2990 
     95 H95        23.8366   23.8249   -2.2405 H         1 UNK         0.0690 
     96 H96        23.7857   25.9137   -3.6727 H         1 UNK         0.0788 
     97 H97        23.9415   26.8894   -2.2187 H         1 UNK         0.0788 
     98 H98        22.5140   25.8861   -2.4722 H         1 UNK         0.0788 
     99 H99        25.9413   23.9079   -2.9120 H         1 UNK         0.2993 
    100 H100       28.0863   24.2268   -2.9801 H         1 UNK         0.0949 
    101 H101       27.9175   26.2540   -4.3884 H         1 UNK         0.0767 
    102 H102       28.4510   27.2824   -3.0703 H         1 UNK         0.0767 
    103 H103       29.5708   26.1335   -3.8044 H         1 UNK         0.0767 
    104 H104       28.6223   25.6147   -0.5158 H         1 UNK         0.3013 
    105 H105       25.9266   27.9484   -0.3044 H         1 UNK         0.3121 
    106 H106       25.1951   30.7949   -0.3833 H         1 UNK         0.0774 
    107 H107       25.1422   30.3909   -2.8567 H         1 UNK         0.0815 
    108 H108       25.7067   28.7448   -2.6068 H         1 UNK         0.0815 
    109 H109       24.1335   29.2520   -1.9839 H         1 UNK         0.0815 
    110 H110       28.0156   28.7503   -0.9547 H         1 UNK         0.2987 
    111 H111       29.7742   31.0234   -1.6802 H         1 UNK         0.0949 
    112 H112       31.5236   29.1761   -1.7390 H         1 UNK         0.0806 
    113 H113       30.2695   28.0118   -1.3353 H         1 UNK         0.0806 
    114 H114       30.1997   28.9039   -2.8542 H         1 UNK         0.0806 
    115 H115       31.7169   31.3860   -0.3860 H         1 UNK         0.3010 
    116 H116       31.4881   30.7629    2.5231 H         1 UNK         0.0829 
    117 H117       30.9841   33.1908    2.1175 H         1 UNK         0.0813 
    118 H118       32.5244   32.9944    2.9378 H         1 UNK         0.0813 
    119 H119       32.4907   33.3630    1.2183 H         1 UNK         0.0813 
    120 H120       33.5385   30.4270    3.5485 H         1 UNK         0.3038 
    121 H121       36.0256   30.3657    2.1661 H         1 UNK         0.0769 
    122 H122       34.6837   27.6581    2.8064 H         1 UNK         0.0811 
    123 H123       36.3364   27.8713    2.2512 H         1 UNK         0.0811 
    124 H124       35.0029   28.2517    1.1797 H         1 UNK         0.0811 
    125 H125       37.6741   29.3783    3.7223 H         1 UNK         0.3204 
    126 H126       37.0909   30.1423    6.5064 H         1 UNK         0.0748 
    127 H127       39.2295   30.8467    5.4820 H         1 UNK         0.0771 
    128 H128       39.5331   29.7254    6.7982 H         1 UNK         0.0771 
    129 H129       39.6569   29.1723    5.1336 H         1 UNK         0.0771 
    130 H130       35.3918   28.4449    6.6753 H         1 UNK         0.2980 
    131 H131       36.1141   25.6828    6.5779 H         1 UNK         0.0545 
    132 H132       37.1170   26.6337   10.3468 H         1 UNK         0.3459 
    133 H133       36.8700   27.8644    9.1330 H         1 UNK         0.3459 
    134 H134       33.8349   26.4275    6.0728 H         1 UNK         0.0616 
    135 H135       33.8750   25.1712    7.2607 H         1 UNK         0.0616 
    136 H136       33.2803   29.0782    6.7532 H         1 UNK         0.0634 
    137 H137       31.9371   29.2605    7.8411 H         1 UNK         0.0634 
@<TRIPOS>BOND
     1    1    2 1    
     2    1   72 1    
     3    1   73 1    
     4    1   74 1    
     5    2    3 2    
     6    2    4 am   BACKBONE|DICT|INTERRES
     7    4    5 1    
     8    4   75 1    
     9    5    6 1    
    10    5   35 1    
    11    5   76 1    
    12    6    7 1    
    13    6   77 1    
    14    6   78 1    
    15    7    8 1    
    16    8    9 1    
    17    8   79 1    
    18    8   80 1    
    19    9   10 ar   
    20    9   14 ar   
    21   10   11 ar   
    22   10   81 1    
    23   11   12 ar   
    24   11   71 1    
    25   12   13 ar   
    26   12   82 1    
    27   13   14 ar   
    28   13   15 1    
    29   14   83 1    
    30   15   16 1    
    31   15   84 1    
    32   15   85 1    
    33   16   17 1    
    34   17   18 1    
    35   17   86 1    
    36   17   87 1    
    37   18   19 1    
    38   18   37 1    
    39   18   88 1    
    40   19   20 am   BACKBONE|DICT|INTERRES
    41   19   89 1    
    42   20   21 2    
    43   20   22 1    
    44   22   23 1    
    45   22   24 1    
    46   22   90 1    
    47   23   91 1    
    48   23   92 1    
    49   23   93 1    
    50   24   25 am   BACKBONE|DICT|INTERRES
    51   24   94 1    
    52   25   26 2    
    53   25   27 1    
    54   27   28 1    
    55   27   29 1    
    56   27   95 1    
    57   28   96 1    
    58   28   97 1    
    59   28   98 1    
    60   29   30 am   BACKBONE|DICT|INTERRES
    61   29   99 1    
    62   30   31 2    
    63   30   32 1    
    64   32   33 1    
    65   32   34 1    
    66   32  100 1    
    67   33  101 1    
    68   33  102 1    
    69   33  103 1    
    70   34   35 am   BACKBONE|DICT|INTERRES
    71   34  104 1    
    72   35   36 2    
    73   37   38 2    
    74   37   39 am   BACKBONE|DICT|INTERRES
    75   39   40 1    
    76   39  105 1    
    77   40   41 1    
    78   40   42 1    
    79   40  106 1    
    80   41  107 1    
    81   41  108 1    
    82   41  109 1    
    83   42   43 2    
    84   42   44 am   BACKBONE|DICT|INTERRES
    85   44   45 1    
    86   44  110 1    
    87   45   46 1    
    88   45   47 1    
    89   45  111 1    
    90   46  112 1    
    91   46  113 1    
    92   46  114 1    
    93   47   48 2    
    94   47   49 am   BACKBONE|DICT|INTERRES
    95   49   50 1    
    96   49  115 1    
    97   50   51 1    
    98   50   52 1    
    99   50  116 1    
   100   51  117 1    
   101   51  118 1    
   102   51  119 1    
   103   52   53 2    
   104   52   54 am   BACKBONE|DICT|INTERRES
   105   54   55 1    
   106   54  120 1    
   107   55   56 1    
   108   55   57 1    
   109   55  121 1    
   110   56  122 1    
   111   56  123 1    
   112   56  124 1    
   113   57   58 2    
   114   57   59 am   BACKBONE|DICT|INTERRES
   115   59   60 1    
   116   59  125 1    
   117   60   61 1    
   118   60   62 1    
   119   60  126 1    
   120   61  127 1    
   121   61  128 1    
   122   61  129 1    
   123   62   63 2    
   124   62   64 am   BACKBONE|DICT|INTERRES
   125   64   65 1    
   126   64  130 1    
   127   65   66 1    
   128   65   69 1    
   129   65  131 1    
   130   66   67 am   BACKBONE|DICT|INTERRES
   131   66   68 2    
   132   67  132 1    
   133   67  133 1    
   134   69   70 1    
   135   69  134 1    
   136   69  135 1    
   137   70   71 1    
   138   71  136 1    
   139   71  137 1    
@<TRIPOS>SUBSTRUCTURE
     1 UNK         1 GROUP             0       ****    0 ROOT    
