@<TRIPOS>MOLECULE
3R136
137   139    1
SMALL
USER_CHARGES


@<TRIPOS>ATOM
      1 CA         30.8742   20.2243   -3.0944 C.3       0 UNK        -0.1979 
      2 C          29.9439   21.0528   -2.2216 C.2       0 UNK         0.4864 
      3 O          29.5491   22.1519   -2.6160 O.2       0 UNK        -0.5359 
      4 N          29.5783   20.5347   -1.0418 N.am      1 UNK        -0.4318 
      5 CA         28.7113   21.1883   -0.0537 C.3       1 UNK         0.0824 
      6 C6         28.9511   20.6421    1.3775 C.3       12 UNK        -0.0944 
      7 S7         30.6269   21.0323    1.9834 S.3       12 UNK        -0.2672 
      8 C8         30.3341   22.6151    2.8380 C.3       12 UNK         0.0333 
      9 C9         31.2919   23.6906    2.3520 C.ar      12 UNK        -0.0807 
     10 C10        32.4437   23.9954    3.0827 C.ar      12 UNK        -0.0894 
     11 C11        33.3092   25.0062    2.6527 C.ar      12 UNK        -0.0804 
     12 C12        33.0194   25.7090    1.4789 C.ar      12 UNK        -0.0824 
     13 C13        31.8648   25.4186    0.7452 C.ar      12 UNK        -0.0762 
     14 C14        31.0114   24.4026    1.1827 C.ar      12 UNK        -0.0782 
     15 C15        31.5282   26.2121   -0.5105 C.3       12 UNK         0.0230 
     16 S16        29.9823   27.1650   -0.3393 S.3       12 UNK        -0.2608 
     17 C17        30.3947   28.2925    1.0352 C.3       12 UNK        -0.0989 
     18 CA         29.1348   28.8434    1.7577 C.3       5 UNK         0.0716 
     19 N          28.2320   27.7936    2.2567 N.am      5 UNK        -0.4135 
     20 C          28.4975   26.8859    3.2098 C.2       4 UNK         0.5031 
     21 O          29.5544   26.8345    3.8357 O.2       4 UNK        -0.5229 
     22 CA         27.3772   25.8877    3.5604 C.3       4 UNK         0.0329 
     23 CB         26.6823   26.3075    4.8668 C.3       4 UNK        -0.2001 
     24 N          26.3670   25.7337    2.5060 N.am      4 UNK        -0.4303 
     25 C          26.5701   25.0573    1.3686 C.2       3 UNK         0.5044 
     26 O          27.6226   24.4727    1.0974 O.2       3 UNK        -0.5152 
     27 CA         25.4113   25.0389    0.3608 C.3       3 UNK         0.0319 
     28 CB         25.2474   26.4036   -0.3312 C.3       3 UNK        -0.2001 
     29 N          25.7294   24.0266   -0.6357 N.am      3 UNK        -0.4354 
     30 C          24.8879   23.1746   -1.2295 C.2       2 UNK         0.4964 
     31 O          23.6619   23.2334   -1.1309 O.2       2 UNK        -0.5047 
     32 CA         25.5363   22.0465   -2.0572 C.3       2 UNK         0.0288 
     33 CB         25.5565   22.4118   -3.5502 C.3       2 UNK        -0.2113 
     34 N          26.9045   21.7530   -1.6145 N.am      2 UNK        -0.4145 
     35 C          27.2233   21.1381   -0.4671 C.2       1 UNK         0.5006 
     36 O          26.3940   20.5766    0.2522 O.2       1 UNK        -0.5103 
     37 C          29.4997   29.8905    2.8367 C.2       5 UNK         0.5055 
     38 O          30.5395   30.5456    2.7272 O.2       5 UNK        -0.5220 
     39 N          28.6334   30.0689    3.8448 N.am      6 UNK        -0.4450 
     40 CA         28.8406   30.9617    4.9909 C.3       6 UNK         0.0367 
     41 CB         27.7161   30.7378    6.0137 C.3       6 UNK        -0.1929 
     42 C          28.9485   32.4547    4.6246 C.2       6 UNK         0.5070 
     43 O          29.5742   33.2126    5.3642 O.2       6 UNK        -0.5237 
     44 N          28.3550   32.8478    3.4910 N.am      7 UNK        -0.4739 
     45 CA         28.4044   34.2097    2.9535 C.3       7 UNK         0.0276 
     46 CB         27.0548   34.5153    2.2805 C.3       7 UNK        -0.1927 
     47 C          29.5607   34.4328    1.9587 C.2       7 UNK         0.5013 
     48 O          29.7591   35.5742    1.5394 O.2       7 UNK        -0.5193 
     49 N          30.2731   33.3653    1.5683 N.am      8 UNK        -0.4253 
     50 CA         31.2956   33.3873    0.5190 C.3       8 UNK         0.0242 
     51 CB         30.8393   32.5038   -0.6582 C.3       8 UNK        -0.2000 
     52 C          32.6600   32.9464    1.0626 C.2       8 UNK         0.4948 
     53 O          33.5849   33.7577    1.1138 O.2       8 UNK        -0.5275 
     54 N          32.7619   31.6702    1.4520 N.am      9 UNK        -0.4246 
     55 CA         33.9729   31.0505    1.9931 C.3       9 UNK         0.0261 
     56 CB         33.9660   29.5546    1.6366 C.3       9 UNK        -0.1959 
     57 C          34.0979   31.2345    3.5147 C.2       9 UNK         0.5033 
     58 O          35.2058   31.1137    4.0383 O.2       9 UNK        -0.5390 
     59 N          32.9689   31.5072    4.1887 N.am      10 UNK        -0.4215 
     60 CA         32.8140   31.6719    5.6408 C.3       10 UNK         0.0240 
     61 CB         33.6580   32.8498    6.1747 C.3       10 UNK        -0.1982 
     62 C          33.0240   30.3649    6.4306 C.2       10 UNK         0.4970 
     63 O          33.3857   30.4127    7.6079 O.2       10 UNK        -0.4916 
     64 N          32.7786   29.2238    5.7758 N.am      11 UNK        -0.4279 
     65 CA         32.8228   27.8826    6.3714 C.3       11 UNK         0.1003 
     66 C          31.6179   27.6127    7.3161 C.2       11 UNK         0.5709 
     67 N          31.7445   26.6442    8.2136 N.am      11 UNK        -0.7358 
     68 O          30.5699   28.2522    7.2374 O.2       11 UNK        -0.4999 
     69 C69        32.9402   26.7868    5.2814 C.3       12 UNK        -0.0954 
     70 S70        34.4310   26.9848    4.2494 S.3       12 UNK        -0.2268 
     71 C71        34.5518   25.3468    3.4635 C.3       12 UNK         0.0203 
     72 H72        30.3964   20.0046   -4.0487 H         1 UNK         0.0888 
     73 H73        31.7927   20.7766   -3.2915 H         1 UNK         0.0888 
     74 H74        31.1416   19.2789   -2.6226 H         1 UNK         0.0888 
     75 H75        29.9228   19.6230   -0.7762 H         1 UNK         0.3017 
     76 H76        28.9688   22.2490   -0.0339 H         1 UNK         0.0873 
     77 H77        28.2224   21.0457    2.0834 H         1 UNK         0.0745 
     78 H78        28.8172   19.5591    1.4001 H         1 UNK         0.0745 
     79 H79        30.4420   22.4630    3.9130 H         1 UNK         0.0705 
     80 H80        29.3104   22.9584    2.6842 H         1 UNK         0.0705 
     81 H81        32.6603   23.4521    3.9923 H         1 UNK         0.1334 
     82 H82        33.6849   26.4962    1.1521 H         1 UNK         0.1417 
     83 H83        30.1154   24.1845    0.6198 H         1 UNK         0.1562 
     84 H84        31.4259   25.5226   -1.3497 H         1 UNK         0.0748 
     85 H85        32.3384   26.8954   -0.7698 H         1 UNK         0.0748 
     86 H86        30.9921   29.1031    0.6159 H         1 UNK         0.0940 
     87 H87        31.0351   27.7800    1.7540 H         1 UNK         0.0940 
     88 H88        28.5570   29.3961    1.0155 H         1 UNK         0.0703 
     89 H89        27.3327   27.7421    1.8023 H         1 UNK         0.3081 
     90 H90        27.8524   24.9181    3.7259 H         1 UNK         0.0719 
     91 H91        26.1674   27.2634    4.7650 H         1 UNK         0.0809 
     92 H92        25.9514   25.5634    5.1840 H         1 UNK         0.0809 
     93 H93        27.4057   26.4127    5.6772 H         1 UNK         0.0809 
     94 H94        25.4694   26.1698    2.6644 H         1 UNK         0.2990 
     95 H95        24.4932   24.7698    0.8875 H         1 UNK         0.0690 
     96 H96        26.1692   26.7189   -0.8227 H         1 UNK         0.0788 
     97 H97        24.9725   27.1801    0.3832 H         1 UNK         0.0788 
     98 H98        24.4622   26.3700   -1.0869 H         1 UNK         0.0788 
     99 H99        26.7242   23.8615   -0.7246 H         1 UNK         0.2993 
    100 H100       24.9282   21.1485   -1.9270 H         1 UNK         0.0949 
    101 H101       26.1592   23.3010   -3.7404 H         1 UNK         0.0767 
    102 H102       25.9608   21.5973   -4.1517 H         1 UNK         0.0767 
    103 H103       24.5489   22.6151   -3.9157 H         1 UNK         0.0767 
    104 H104       27.6703   22.1321   -2.1669 H         1 UNK         0.3013 
    105 H105       27.7979   29.5034    3.8588 H         1 UNK         0.3121 
    106 H106       29.7821   30.6711    5.4605 H         1 UNK         0.0774 
    107 H107       27.8565   31.3700    6.8918 H         1 UNK         0.0815 
    108 H108       26.7359   30.9717    5.5966 H         1 UNK         0.0815 
    109 H109       27.6990   29.7049    6.3628 H         1 UNK         0.0815 
    110 H110       27.8449   32.1620    2.9532 H         1 UNK         0.2987 
    111 H111       28.5425   34.9225    3.7699 H         1 UNK         0.0949 
    112 H112       26.8640   33.8522    1.4358 H         1 UNK         0.0806 
    113 H113       26.2283   34.4109    2.9837 H         1 UNK         0.0806 
    114 H114       27.0269   35.5387    1.9034 H         1 UNK         0.0806 
    115 H115       30.0961   32.4753    2.0175 H         1 UNK         0.3010 
    116 H116       31.4273   34.4002    0.1320 H         1 UNK         0.0829 
    117 H117       31.6113   32.4452   -1.4268 H         1 UNK         0.0813 
    118 H118       30.6074   31.4849   -0.3471 H         1 UNK         0.0813 
    119 H119       29.9465   32.9144   -1.1302 H         1 UNK         0.0813 
    120 H120       31.9237   31.1004    1.4707 H         1 UNK         0.3038 
    121 H121       34.8490   31.5082    1.5283 H         1 UNK         0.0769 
    122 H122       34.8931   29.0766    1.9556 H         1 UNK         0.0811 
    123 H123       33.8762   29.3997    0.5614 H         1 UNK         0.0811 
    124 H124       33.1459   29.0267    2.1241 H         1 UNK         0.0811 
    125 H125       32.1072   31.5148    3.6538 H         1 UNK         0.3204 
    126 H126       31.7714   31.9373    5.8013 H         1 UNK         0.0748 
    127 H127       33.4024   33.0745    7.2109 H         1 UNK         0.0771 
    128 H128       34.7260   32.6330    6.1458 H         1 UNK         0.0771 
    129 H129       33.4821   33.7567    5.5961 H         1 UNK         0.0771 
    130 H130       32.4706   29.2687    4.8172 H         1 UNK         0.2980 
    131 H131       33.7228   27.8344    6.9878 H         1 UNK         0.0545 
    132 H132       30.9729   26.4483    8.8315 H         1 UNK         0.3459 
    133 H133       32.5954   26.1093    8.2894 H         1 UNK         0.3459 
    134 H134       32.9722   25.7956    5.7371 H         1 UNK         0.0616 
    135 H135       32.0663   26.7990    4.6287 H         1 UNK         0.0616 
    136 H136       35.4239   25.3336    2.8085 H         1 UNK         0.0634 
    137 H137       34.7340   24.5955    4.2334 H         1 UNK         0.0634 
@<TRIPOS>BOND
     1    1    2 1    
     2    1   72 1    
     3    1   73 1    
     4    1   74 1    
     5    2    3 2    
     6    2    4 am   BACKBONE|DICT|INTERRES
     7    4    5 1    
     8    4   75 1    
     9    5    6 1    
    10    5   35 1    
    11    5   76 1    
    12    6    7 1    
    13    6   77 1    
    14    6   78 1    
    15    7    8 1    
    16    8    9 1    
    17    8   79 1    
    18    8   80 1    
    19    9   10 ar   
    20    9   14 ar   
    21   10   11 ar   
    22   10   81 1    
    23   11   12 ar   
    24   11   71 1    
    25   12   13 ar   
    26   12   82 1    
    27   13   14 ar   
    28   13   15 1    
    29   14   83 1    
    30   15   16 1    
    31   15   84 1    
    32   15   85 1    
    33   16   17 1    
    34   17   18 1    
    35   17   86 1    
    36   17   87 1    
    37   18   19 1    
    38   18   37 1    
    39   18   88 1    
    40   19   20 am   BACKBONE|DICT|INTERRES
    41   19   89 1    
    42   20   21 2    
    43   20   22 1    
    44   22   23 1    
    45   22   24 1    
    46   22   90 1    
    47   23   91 1    
    48   23   92 1    
    49   23   93 1    
    50   24   25 am   BACKBONE|DICT|INTERRES
    51   24   94 1    
    52   25   26 2    
    53   25   27 1    
    54   27   28 1    
    55   27   29 1    
    56   27   95 1    
    57   28   96 1    
    58   28   97 1    
    59   28   98 1    
    60   29   30 am   BACKBONE|DICT|INTERRES
    61   29   99 1    
    62   30   31 2    
    63   30   32 1    
    64   32   33 1    
    65   32   34 1    
    66   32  100 1    
    67   33  101 1    
    68   33  102 1    
    69   33  103 1    
    70   34   35 am   BACKBONE|DICT|INTERRES
    71   34  104 1    
    72   35   36 2    
    73   37   38 2    
    74   37   39 am   BACKBONE|DICT|INTERRES
    75   39   40 1    
    76   39  105 1    
    77   40   41 1    
    78   40   42 1    
    79   40  106 1    
    80   41  107 1    
    81   41  108 1    
    82   41  109 1    
    83   42   43 2    
    84   42   44 am   BACKBONE|DICT|INTERRES
    85   44   45 1    
    86   44  110 1    
    87   45   46 1    
    88   45   47 1    
    89   45  111 1    
    90   46  112 1    
    91   46  113 1    
    92   46  114 1    
    93   47   48 2    
    94   47   49 am   BACKBONE|DICT|INTERRES
    95   49   50 1    
    96   49  115 1    
    97   50   51 1    
    98   50   52 1    
    99   50  116 1    
   100   51  117 1    
   101   51  118 1    
   102   51  119 1    
   103   52   53 2    
   104   52   54 am   BACKBONE|DICT|INTERRES
   105   54   55 1    
   106   54  120 1    
   107   55   56 1    
   108   55   57 1    
   109   55  121 1    
   110   56  122 1    
   111   56  123 1    
   112   56  124 1    
   113   57   58 2    
   114   57   59 am   BACKBONE|DICT|INTERRES
   115   59   60 1    
   116   59  125 1    
   117   60   61 1    
   118   60   62 1    
   119   60  126 1    
   120   61  127 1    
   121   61  128 1    
   122   61  129 1    
   123   62   63 2    
   124   62   64 am   BACKBONE|DICT|INTERRES
   125   64   65 1    
   126   64  130 1    
   127   65   66 1    
   128   65   69 1    
   129   65  131 1    
   130   66   67 am   BACKBONE|DICT|INTERRES
   131   66   68 2    
   132   67  132 1    
   133   67  133 1    
   134   69   70 1    
   135   69  134 1    
   136   69  135 1    
   137   70   71 1    
   138   71  136 1    
   139   71  137 1    
@<TRIPOS>SUBSTRUCTURE
     1 UNK         1 GROUP             0       ****    0 ROOT    
