@<TRIPOS>MOLECULE
3R136
137   139    1
SMALL
USER_CHARGES


@<TRIPOS>ATOM
      1 CA         29.8543   18.2947    3.3756 C.3       0 UNK        -0.1979 
      2 C          29.4424   19.5879    2.6875 C.2       0 UNK         0.4864 
      3 O          29.7779   20.6670    3.1765 O.2       0 UNK        -0.5359 
      4 N          28.7271   19.4770    1.5585 N.am      1 UNK        -0.4318 
      5 CA         28.2117   20.5793    0.7335 C.3       1 UNK         0.0824 
      6 C6         29.3268   21.4280    0.0583 C.3       12 UNK        -0.0944 
      7 S7         30.5001   20.4423   -0.9379 S.3       12 UNK        -0.2672 
      8 C8         32.0584   20.6151    0.0016 C.3       12 UNK         0.0333 
      9 C9         32.4153   22.0697    0.2867 C.ar      12 UNK        -0.0807 
     10 C10        32.5644   22.5098    1.6058 C.ar      12 UNK        -0.0894 
     11 C11        32.8245   23.8556    1.8812 C.ar      12 UNK        -0.0804 
     12 C12        32.9285   24.7673    0.8272 C.ar      12 UNK        -0.0824 
     13 C13        32.7690   24.3400   -0.4952 C.ar      12 UNK        -0.0762 
     14 C14        32.5417   22.9867   -0.7605 C.ar      12 UNK        -0.0782 
     15 C15        32.7857   25.3464   -1.6362 C.3       12 UNK         0.0230 
     16 S16        31.1548   25.4809   -2.4464 S.3       12 UNK        -0.2608 
     17 C17        30.0722   25.9965   -1.0667 C.3       12 UNK        -0.0989 
     18 CA         29.6632   27.4876   -1.1218 C.3       5 UNK         0.0716 
     19 N          28.4570   27.7227   -0.3213 N.am      5 UNK        -0.4135 
     20 C          27.7556   28.8668   -0.3038 C.2       4 UNK         0.5031 
     21 O          28.0039   29.8242   -1.0369 O.2       4 UNK        -0.5229 
     22 CA         26.6199   28.9969    0.7305 C.3       4 UNK         0.0329 
     23 CB         25.2575   28.7593    0.0600 C.3       4 UNK        -0.2001 
     24 N          26.7438   28.1083    1.8912 N.am      4 UNK        -0.4303 
     25 C          27.7824   28.0635    2.7393 C.2       3 UNK         0.5044 
     26 O          28.7718   28.7885    2.6508 O.2       3 UNK        -0.5152 
     27 CA         27.7450   26.9766    3.8279 C.3       3 UNK         0.0319 
     28 CB         27.1157   27.5303    5.1165 C.3       3 UNK        -0.2001 
     29 N          27.0454   25.7445    3.4393 N.am      3 UNK        -0.4354 
     30 C          27.3328   24.9857    2.3720 C.2       2 UNK         0.4964 
     31 O          28.1868   25.2697    1.5263 O.2       2 UNK        -0.5047 
     32 CA         26.4861   23.7229    2.1897 C.3       2 UNK         0.0288 
     33 CB         25.1909   24.0356    1.4186 C.3       2 UNK        -0.2113 
     34 N          27.2863   22.7554    1.4505 N.am      2 UNK        -0.4145 
     35 C          27.1813   21.4234    1.5235 C.2       1 UNK         0.5006 
     36 O          26.3054   20.8477    2.1755 O.2       1 UNK        -0.5103 
     37 C          30.8313   28.4240   -0.7258 C.2       5 UNK         0.5055 
     38 O          31.6661   28.7390   -1.5748 O.2       5 UNK        -0.5220 
     39 N          30.8552   28.8936    0.5318 N.am      6 UNK        -0.4450 
     40 CA         31.8191   29.8776    1.0308 C.3       6 UNK         0.0367 
     41 CB         31.9763   29.6925    2.5494 C.3       6 UNK        -0.1929 
     42 C          31.4393   31.3339    0.6841 C.2       6 UNK         0.5070 
     43 O          32.1712   32.2417    1.0787 O.2       6 UNK        -0.5237 
     44 N          30.3237   31.5427   -0.0354 N.am      7 UNK        -0.4739 
     45 CA         29.7412   32.8300   -0.4289 C.3       7 UNK         0.0276 
     46 CB         30.6772   33.6018   -1.3883 C.3       7 UNK        -0.1927 
     47 C          29.2809   33.6254    0.8060 C.2       7 UNK         0.5013 
     48 O          28.4720   33.1072    1.5775 O.2       7 UNK        -0.5193 
     49 N          29.7888   34.8513    0.9913 N.am      8 UNK        -0.4253 
     50 CA         29.5003   35.7274    2.1324 C.3       8 UNK         0.0242 
     51 CB         29.7518   37.1883    1.7125 C.3       8 UNK        -0.2000 
     52 C          30.3005   35.3220    3.3890 C.2       8 UNK         0.4948 
     53 O          31.0151   36.1475    3.9614 O.2       8 UNK        -0.5275 
     54 N          30.1750   34.0526    3.7844 N.am      9 UNK        -0.4246 
     55 CA         30.8352   33.4036    4.9131 C.3       9 UNK         0.0261 
     56 CB         32.3463   33.2284    4.6344 C.3       9 UNK        -0.1959 
     57 C          30.1087   32.0738    5.1786 C.2       9 UNK         0.5033 
     58 O          28.9425   31.9326    4.8020 O.2       9 UNK        -0.5390 
     59 N          30.7979   31.1210    5.8118 N.am      10 UNK        -0.4215 
     60 CA         30.3386   29.7568    6.0486 C.3       10 UNK         0.0240 
     61 CB         29.4962   29.6993    7.3369 C.3       10 UNK        -0.1982 
     62 C          31.5647   28.8431    6.1425 C.2       10 UNK         0.4970 
     63 O          32.6775   29.3369    6.3475 O.2       10 UNK        -0.4916 
     64 N          31.3358   27.5335    6.0005 N.am      11 UNK        -0.4279 
     65 CA         32.3486   26.4836    6.1789 C.3       11 UNK         0.1003 
     66 C          32.8840   26.4168    7.6368 C.2       11 UNK         0.5709 
     67 N          34.1632   26.1168    7.8158 N.am      11 UNK        -0.7358 
     68 O          32.1420   26.5918    8.6021 O.2       11 UNK        -0.4999 
     69 C69        31.8072   25.0991    5.7407 C.3       12 UNK        -0.0954 
     70 S70        31.4204   25.0164    3.9605 S.3       12 UNK        -0.2268 
     71 C71        32.9762   24.3232    3.3194 C.3       12 UNK         0.0203 
     72 H72        29.5064   17.4148    2.8347 H         1 UNK         0.0888 
     73 H73        30.9402   18.2396    3.4492 H         1 UNK         0.0888 
     74 H74        29.4417   18.2586    4.3835 H         1 UNK         0.0888 
     75 H75        28.4716   18.5547    1.2350 H         1 UNK         0.3017 
     76 H76        27.6396   20.1065   -0.0663 H         1 UNK         0.0873 
     77 H77        28.8887   22.1584   -0.6245 H         1 UNK         0.0745 
     78 H78        29.8639   22.0048    0.8113 H         1 UNK         0.0745 
     79 H79        31.9692   20.0491    0.9300 H         1 UNK         0.0705 
     80 H80        32.8677   20.1531   -0.5650 H         1 UNK         0.0705 
     81 H81        32.4522   21.8092    2.4225 H         1 UNK         0.1334 
     82 H82        33.1016   25.8133    1.0414 H         1 UNK         0.1417 
     83 H83        32.4034   22.6570   -1.7815 H         1 UNK         0.1562 
     84 H84        33.5254   25.0387   -2.3765 H         1 UNK         0.0748 
     85 H85        33.0954   26.3316   -1.2845 H         1 UNK         0.0748 
     86 H86        30.5099   25.7496   -0.0989 H         1 UNK         0.0940 
     87 H87        29.1807   25.3713   -1.1397 H         1 UNK         0.0940 
     88 H88        29.3990   27.7287   -2.1539 H         1 UNK         0.0703 
     89 H89        28.2037   26.9840    0.3268 H         1 UNK         0.3081 
     90 H90        26.6463   30.0228    1.1045 H         1 UNK         0.0719 
     91 H91        25.1601   27.7360   -0.3051 H         1 UNK         0.0809 
     92 H92        24.4354   28.9511    0.7499 H         1 UNK         0.0809 
     93 H93        25.1212   29.4244   -0.7942 H         1 UNK         0.0809 
     94 H94        25.9858   27.4598    2.0450 H         1 UNK         0.2990 
     95 H95        28.7811   26.7063    4.0403 H         1 UNK         0.0690 
     96 H96        27.2474   26.8416    5.9513 H         1 UNK         0.0788 
     97 H97        26.0470   27.7125    4.9963 H         1 UNK         0.0788 
     98 H98        27.5697   28.4786    5.4045 H         1 UNK         0.0788 
     99 H99        26.3109   25.4375    4.0613 H         1 UNK         0.2993 
    100 H100       26.2450   23.3158    3.1744 H         1 UNK         0.0949 
    101 H101       24.5849   23.1397    1.2822 H         1 UNK         0.0767 
    102 H102       24.5782   24.7604    1.9559 H         1 UNK         0.0767 
    103 H103       25.4006   24.4503    0.4315 H         1 UNK         0.0767 
    104 H104       28.0571   23.1724    0.9431 H         1 UNK         0.3013 
    105 H105       30.1078   28.6449    1.1745 H         1 UNK         0.3121 
    106 H106       32.7898   29.6812    0.5706 H         1 UNK         0.0774 
    107 H107       31.0739   29.9928    3.0809 H         1 UNK         0.0815 
    108 H108       32.7973   30.2978    2.9345 H         1 UNK         0.0815 
    109 H109       32.1913   28.6556    2.8088 H         1 UNK         0.0815 
    110 H110       29.7629   30.7367   -0.2868 H         1 UNK         0.2987 
    111 H111       28.8319   32.5921   -0.9835 H         1 UNK         0.0949 
    112 H112       31.6142   33.8953   -0.9140 H         1 UNK         0.0806 
    113 H113       30.9284   32.9932   -2.2572 H         1 UNK         0.0806 
    114 H114       30.1969   34.5060   -1.7647 H         1 UNK         0.0806 
    115 H115       30.4837   35.1803    0.3369 H         1 UNK         0.3010 
    116 H116       28.4419   35.6352    2.3864 H         1 UNK         0.0829 
    117 H117       29.1402   37.4658    0.8537 H         1 UNK         0.0813 
    118 H118       29.5008   37.8763    2.5210 H         1 UNK         0.0813 
    119 H119       30.7968   37.3595    1.4508 H         1 UNK         0.0813 
    120 H120       29.5190   33.4552    3.2843 H         1 UNK         0.3038 
    121 H121       30.7031   34.0303    5.7970 H         1 UNK         0.0769 
    122 H122       32.5225   32.5622    3.7899 H         1 UNK         0.0811 
    123 H123       32.8729   32.8207    5.4976 H         1 UNK         0.0811 
    124 H124       32.8250   34.1799    4.4041 H         1 UNK         0.0811 
    125 H125       31.7696   31.2733    6.0546 H         1 UNK         0.3204 
    126 H126       29.7392   29.4294    5.1968 H         1 UNK         0.0748 
    127 H127       29.1507   28.6849    7.5399 H         1 UNK         0.0771 
    128 H128       30.0681   30.0293    8.2051 H         1 UNK         0.0771 
    129 H129       28.6111   30.3311    7.2599 H         1 UNK         0.0771 
    130 H130       30.3930   27.2094    5.8527 H         1 UNK         0.2980 
    131 H131       33.1899   26.7384    5.5310 H         1 UNK         0.0545 
    132 H132       34.5236   26.0540    8.7552 H         1 UNK         0.3459 
    133 H133       34.7785   25.9605    7.0328 H         1 UNK         0.3459 
    134 H134       32.5216   24.3095    5.9807 H         1 UNK         0.0616 
    135 H135       30.8995   24.8541    6.2954 H         1 UNK         0.0616 
    136 H136       33.7621   25.0769    3.3885 H         1 UNK         0.0634 
    137 H137       33.2924   23.4873    3.9453 H         1 UNK         0.0634 
@<TRIPOS>BOND
     1    1    2 1    
     2    1   72 1    
     3    1   73 1    
     4    1   74 1    
     5    2    3 2    
     6    2    4 am   BACKBONE|DICT|INTERRES
     7    4    5 1    
     8    4   75 1    
     9    5    6 1    
    10    5   35 1    
    11    5   76 1    
    12    6    7 1    
    13    6   77 1    
    14    6   78 1    
    15    7    8 1    
    16    8    9 1    
    17    8   79 1    
    18    8   80 1    
    19    9   10 ar   
    20    9   14 ar   
    21   10   11 ar   
    22   10   81 1    
    23   11   12 ar   
    24   11   71 1    
    25   12   13 ar   
    26   12   82 1    
    27   13   14 ar   
    28   13   15 1    
    29   14   83 1    
    30   15   16 1    
    31   15   84 1    
    32   15   85 1    
    33   16   17 1    
    34   17   18 1    
    35   17   86 1    
    36   17   87 1    
    37   18   19 1    
    38   18   37 1    
    39   18   88 1    
    40   19   20 am   BACKBONE|DICT|INTERRES
    41   19   89 1    
    42   20   21 2    
    43   20   22 1    
    44   22   23 1    
    45   22   24 1    
    46   22   90 1    
    47   23   91 1    
    48   23   92 1    
    49   23   93 1    
    50   24   25 am   BACKBONE|DICT|INTERRES
    51   24   94 1    
    52   25   26 2    
    53   25   27 1    
    54   27   28 1    
    55   27   29 1    
    56   27   95 1    
    57   28   96 1    
    58   28   97 1    
    59   28   98 1    
    60   29   30 am   BACKBONE|DICT|INTERRES
    61   29   99 1    
    62   30   31 2    
    63   30   32 1    
    64   32   33 1    
    65   32   34 1    
    66   32  100 1    
    67   33  101 1    
    68   33  102 1    
    69   33  103 1    
    70   34   35 am   BACKBONE|DICT|INTERRES
    71   34  104 1    
    72   35   36 2    
    73   37   38 2    
    74   37   39 am   BACKBONE|DICT|INTERRES
    75   39   40 1    
    76   39  105 1    
    77   40   41 1    
    78   40   42 1    
    79   40  106 1    
    80   41  107 1    
    81   41  108 1    
    82   41  109 1    
    83   42   43 2    
    84   42   44 am   BACKBONE|DICT|INTERRES
    85   44   45 1    
    86   44  110 1    
    87   45   46 1    
    88   45   47 1    
    89   45  111 1    
    90   46  112 1    
    91   46  113 1    
    92   46  114 1    
    93   47   48 2    
    94   47   49 am   BACKBONE|DICT|INTERRES
    95   49   50 1    
    96   49  115 1    
    97   50   51 1    
    98   50   52 1    
    99   50  116 1    
   100   51  117 1    
   101   51  118 1    
   102   51  119 1    
   103   52   53 2    
   104   52   54 am   BACKBONE|DICT|INTERRES
   105   54   55 1    
   106   54  120 1    
   107   55   56 1    
   108   55   57 1    
   109   55  121 1    
   110   56  122 1    
   111   56  123 1    
   112   56  124 1    
   113   57   58 2    
   114   57   59 am   BACKBONE|DICT|INTERRES
   115   59   60 1    
   116   59  125 1    
   117   60   61 1    
   118   60   62 1    
   119   60  126 1    
   120   61  127 1    
   121   61  128 1    
   122   61  129 1    
   123   62   63 2    
   124   62   64 am   BACKBONE|DICT|INTERRES
   125   64   65 1    
   126   64  130 1    
   127   65   66 1    
   128   65   69 1    
   129   65  131 1    
   130   66   67 am   BACKBONE|DICT|INTERRES
   131   66   68 2    
   132   67  132 1    
   133   67  133 1    
   134   69   70 1    
   135   69  134 1    
   136   69  135 1    
   137   70   71 1    
   138   71  136 1    
   139   71  137 1    
@<TRIPOS>SUBSTRUCTURE
     1 UNK         1 GROUP             0       ****    0 ROOT    
