@<TRIPOS>MOLECULE
3R136
137   139    1
SMALL
USER_CHARGES


@<TRIPOS>ATOM
      1 CA         34.6244   20.2119   -1.5291 C.3       0 UNK        -0.1979 
      2 C          33.7912   21.0724   -0.5905 C.2       0 UNK         0.4864 
      3 O          34.3321   21.9679    0.0602 O.2       0 UNK        -0.5359 
      4 N          32.4815   20.8035   -0.5091 N.am      1 UNK        -0.4318 
      5 CA         31.5187   21.5691    0.2867 C.3       1 UNK         0.0824 
      6 C6         30.2123   20.7506    0.5065 C.3       12 UNK        -0.0944 
      7 S7         28.7856   21.6740    1.1827 S.3       12 UNK        -0.2672 
      8 C8         29.1750   21.7248    2.9588 C.3       12 UNK         0.0333 
      9 C9         28.6101   22.9766    3.6202 C.ar      12 UNK        -0.0807 
     10 C10        29.4635   23.8956    4.2405 C.ar      12 UNK        -0.0894 
     11 C11        28.9460   25.0236    4.8861 C.ar      12 UNK        -0.0804 
     12 C12        27.5645   25.2376    4.8986 C.ar      12 UNK        -0.0824 
     13 C13        26.7021   24.3386    4.2641 C.ar      12 UNK        -0.0762 
     14 C14        27.2304   23.2066    3.6353 C.ar      12 UNK        -0.0782 
     15 C15        25.1984   24.5711    4.2704 C.3       12 UNK         0.0230 
     16 S16        24.6507   25.4836    2.7920 S.3       12 UNK        -0.2608 
     17 C17        24.9015   27.2232    3.2894 C.3       12 UNK        -0.0989 
     18 CA         26.2171   27.8362    2.7430 C.3       5 UNK         0.0716 
     19 N          26.3622   27.7517    1.2803 N.am      5 UNK        -0.4135 
     20 C          25.5958   28.2907    0.3186 C.2       4 UNK         0.5031 
     21 O          24.6359   29.0291    0.5434 O.2       4 UNK        -0.5229 
     22 CA         25.9796   28.0021   -1.1463 C.3       4 UNK         0.0329 
     23 CB         26.8010   29.1690   -1.7183 C.3       4 UNK        -0.2001 
     24 N          26.7347   26.7589   -1.3113 N.am      4 UNK        -0.4303 
     25 C          26.2291   25.5322   -1.1265 C.2       3 UNK         0.5044 
     26 O          25.0279   25.3107   -0.9691 O.2       3 UNK        -0.5152 
     27 CA         27.2157   24.3482   -1.0961 C.3       3 UNK         0.0319 
     28 CB         27.0540   23.4752   -2.3512 C.3       3 UNK        -0.2001 
     29 N          28.6390   24.6794   -0.9359 N.am      3 UNK        -0.4354 
     30 C          29.1994   25.3636    0.0720 C.2       2 UNK         0.4964 
     31 O          28.5579   25.9690    0.9310 O.2       2 UNK        -0.5047 
     32 CA         30.7384   25.3330    0.1326 C.3       2 UNK         0.0288 
     33 CB         31.3061   26.3209    1.1659 C.3       2 UNK        -0.2113 
     34 N          31.1911   23.9884    0.4849 N.am      2 UNK        -0.4145 
     35 C          31.2730   22.9510   -0.3584 C.2       1 UNK         0.5006 
     36 O          31.1002   23.0433   -1.5777 O.2       1 UNK        -0.5103 
     37 C          26.4463   29.2477    3.3273 C.2       5 UNK         0.5055 
     38 O          27.0651   29.3687    4.3843 O.2       5 UNK        -0.5220 
     39 N          25.9673   30.2896    2.6370 N.am      6 UNK        -0.4450 
     40 CA         26.1729   31.7041    2.9600 C.3       6 UNK         0.0367 
     41 CB         25.1249   32.5401    2.2074 C.3       6 UNK        -0.1929 
     42 C          27.5939   32.2036    2.6354 C.2       6 UNK         0.5070 
     43 O          27.9546   33.3063    3.0501 O.2       6 UNK        -0.5237 
     44 N          28.3773   31.4017    1.9004 N.am      7 UNK        -0.4739 
     45 CA         29.7698   31.6544    1.5300 C.3       7 UNK         0.0276 
     46 CB         30.1469   30.7233    0.3623 C.3       7 UNK        -0.1927 
     47 C          30.7182   31.4957    2.7334 C.2       7 UNK         0.5013 
     48 O          31.5254   30.5653    2.7669 O.2       7 UNK        -0.5193 
     49 N          30.6133   32.4181    3.6993 N.am      8 UNK        -0.4253 
     50 CA         31.3815   32.4558    4.9499 C.3       8 UNK         0.0242 
     51 CB         30.9766   33.6981    5.7585 C.3       8 UNK        -0.2000 
     52 C          32.9084   32.4101    4.7626 C.2       8 UNK         0.4948 
     53 O          33.5974   31.7994    5.5786 O.2       8 UNK        -0.5275 
     54 N          33.4035   33.0115    3.6718 N.am      9 UNK        -0.4246 
     55 CA         34.8101   32.9754    3.2642 C.3       9 UNK         0.0261 
     56 CB         35.0329   33.9938    2.1341 C.3       9 UNK        -0.1959 
     57 C          35.2987   31.5787    2.8319 C.2       9 UNK         0.5033 
     58 O          36.4976   31.3137    2.9330 O.2       9 UNK        -0.5390 
     59 N          34.3840   30.7207    2.3582 N.am      10 UNK        -0.4215 
     60 CA         34.6636   29.3353    1.9810 C.3       10 UNK         0.0240 
     61 CB         33.8173   28.9536    0.7559 C.3       10 UNK        -0.1982 
     62 C          34.4043   28.3810    3.1570 C.2       10 UNK         0.4970 
     63 O          35.1988   27.4630    3.3639 O.2       10 UNK        -0.4916 
     64 N          33.3208   28.6171    3.9117 N.am      11 UNK        -0.4279 
     65 CA         32.9917   27.8860    5.1462 C.3       11 UNK         0.1003 
     66 C          34.0251   28.0842    6.2909 C.2       11 UNK         0.5709 
     67 N          34.5896   29.2712    6.4730 N.am      11 UNK        -0.7358 
     68 O          34.3216   27.1419    7.0215 O.2       11 UNK        -0.4999 
     69 C69        31.5575   28.2038    5.6430 C.3       12 UNK        -0.0954 
     70 S70        30.2769   27.4447    4.5928 S.3       12 UNK        -0.2268 
     71 C71        29.8758   25.9881    5.6062 C.3       12 UNK         0.0203 
     72 H72        35.4138   19.7063   -0.9734 H         1 UNK         0.0888 
     73 H73        34.0228   19.4531   -2.0291 H         1 UNK         0.0888 
     74 H74        35.0897   20.8336   -2.2936 H         1 UNK         0.0888 
     75 H75        32.0901   20.0767   -1.0910 H         1 UNK         0.3017 
     76 H76        31.9692   21.7359    1.2677 H         1 UNK         0.0873 
     77 H77        29.8797   20.3320   -0.4451 H         1 UNK         0.0745 
     78 H78        30.4138   19.8933    1.1510 H         1 UNK         0.0745 
     79 H79        28.7618   20.8383    3.4419 H         1 UNK         0.0705 
     80 H80        30.2555   21.6769    3.0993 H         1 UNK         0.0705 
     81 H81        30.5314   23.7259    4.2398 H         1 UNK         0.1334 
     82 H82        27.1632   26.1093    5.3977 H         1 UNK         0.1417 
     83 H83        26.5669   22.5032    3.1504 H         1 UNK         0.1562 
     84 H84        24.8909   25.0934    5.1774 H         1 UNK         0.0748 
     85 H85        24.6824   23.6100    4.2926 H         1 UNK         0.0748 
     86 H86        24.8726   27.2887    4.3787 H         1 UNK         0.0940 
     87 H87        24.0423   27.7970    2.9376 H         1 UNK         0.0940 
     88 H88        27.0420   27.2321    3.1206 H         1 UNK         0.0703 
     89 H89        27.1342   27.1529    0.9917 H         1 UNK         0.3081 
     90 H90        25.0533   27.9188   -1.7188 H         1 UNK         0.0719 
     91 H91        27.7534   29.2844   -1.2002 H         1 UNK         0.0809 
     92 H92        27.0104   29.0245   -2.7784 H         1 UNK         0.0809 
     93 H93        26.2607   30.1121   -1.6226 H         1 UNK         0.0809 
     94 H94        27.7316   26.8410   -1.4457 H         1 UNK         0.2990 
     95 H95        26.9377   23.7462   -0.2286 H         1 UNK         0.0690 
     96 H96        27.6499   22.5647   -2.2793 H         1 UNK         0.0788 
     97 H97        27.3582   24.0076   -3.2531 H         1 UNK         0.0788 
     98 H98        26.0156   23.1688   -2.4866 H         1 UNK         0.0788 
     99 H99        29.2741   24.1979   -1.5622 H         1 UNK         0.2993 
    100 H100       31.1247   25.6064   -0.8518 H         1 UNK         0.0949 
    101 H101       30.9735   27.3393    0.9632 H         1 UNK         0.0767 
    102 H102       30.9826   26.0674    2.1749 H         1 UNK         0.0767 
    103 H103       32.3955   26.3204    1.1589 H         1 UNK         0.0767 
    104 H104       31.3066   23.8134    1.4719 H         1 UNK         0.3013 
    105 H105       25.4255   30.0766    1.8007 H         1 UNK         0.3121 
    106 H106       26.0178   31.8397    4.0324 H         1 UNK         0.0774 
    107 H107       25.2284   32.4381    1.1263 H         1 UNK         0.0815 
    108 H108       25.2237   33.5999    2.4465 H         1 UNK         0.0815 
    109 H109       24.1115   32.2422    2.4772 H         1 UNK         0.0815 
    110 H110       28.0001   30.5050    1.6341 H         1 UNK         0.2987 
    111 H111       29.8566   32.6849    1.1783 H         1 UNK         0.0949 
    112 H112       30.0439   29.6717    0.6334 H         1 UNK         0.0806 
    113 H113       29.5219   30.9101   -0.5107 H         1 UNK         0.0806 
    114 H114       31.1815   30.8812    0.0547 H         1 UNK         0.0806 
    115 H115       29.8622   33.0951    3.6018 H         1 UNK         0.3010 
    116 H116       31.0989   31.5732    5.5250 H         1 UNK         0.0829 
    117 H117       29.9114   33.6902    5.9912 H         1 UNK         0.0813 
    118 H118       31.5135   33.7389    6.7075 H         1 UNK         0.0813 
    119 H119       31.1956   34.6206    5.2193 H         1 UNK         0.0813 
    120 H120       32.7617   33.4965    3.0616 H         1 UNK         0.3038 
    121 H121       35.4138   33.2794    4.1222 H         1 UNK         0.0769 
    122 H122       34.4399   33.7540    1.2505 H         1 UNK         0.0811 
    123 H123       36.0799   34.0132    1.8278 H         1 UNK         0.0811 
    124 H124       34.7724   35.0037    2.4515 H         1 UNK         0.0811 
    125 H125       33.4048   30.9875    2.3710 H         1 UNK         0.3204 
    126 H126       35.7140   29.2375    1.6981 H         1 UNK         0.0748 
    127 H127       34.0479   27.9404    0.4254 H         1 UNK         0.0771 
    128 H128       32.7496   28.9960    0.9698 H         1 UNK         0.0771 
    129 H129       34.0154   29.6196   -0.0840 H         1 UNK         0.0771 
    130 H130       32.6747   29.3505    3.6347 H         1 UNK         0.2980 
    131 H131       33.0250   26.8229    4.8984 H         1 UNK         0.0545 
    132 H132       35.2620   29.3832    7.2140 H         1 UNK         0.3459 
    133 H133       34.2848   30.0864    5.9478 H         1 UNK         0.3459 
    134 H134       31.4080   27.8600    6.6685 H         1 UNK         0.0616 
    135 H135       31.3932   29.2810    5.6659 H         1 UNK         0.0616 
    136 H136       30.8004   25.4788    5.8826 H         1 UNK         0.0634 
    137 H137       29.4151   26.3171    6.5390 H         1 UNK         0.0634 
@<TRIPOS>BOND
     1    1    2 1    
     2    1   72 1    
     3    1   73 1    
     4    1   74 1    
     5    2    3 2    
     6    2    4 am   BACKBONE|DICT|INTERRES
     7    4    5 1    
     8    4   75 1    
     9    5    6 1    
    10    5   35 1    
    11    5   76 1    
    12    6    7 1    
    13    6   77 1    
    14    6   78 1    
    15    7    8 1    
    16    8    9 1    
    17    8   79 1    
    18    8   80 1    
    19    9   10 ar   
    20    9   14 ar   
    21   10   11 ar   
    22   10   81 1    
    23   11   12 ar   
    24   11   71 1    
    25   12   13 ar   
    26   12   82 1    
    27   13   14 ar   
    28   13   15 1    
    29   14   83 1    
    30   15   16 1    
    31   15   84 1    
    32   15   85 1    
    33   16   17 1    
    34   17   18 1    
    35   17   86 1    
    36   17   87 1    
    37   18   19 1    
    38   18   37 1    
    39   18   88 1    
    40   19   20 am   BACKBONE|DICT|INTERRES
    41   19   89 1    
    42   20   21 2    
    43   20   22 1    
    44   22   23 1    
    45   22   24 1    
    46   22   90 1    
    47   23   91 1    
    48   23   92 1    
    49   23   93 1    
    50   24   25 am   BACKBONE|DICT|INTERRES
    51   24   94 1    
    52   25   26 2    
    53   25   27 1    
    54   27   28 1    
    55   27   29 1    
    56   27   95 1    
    57   28   96 1    
    58   28   97 1    
    59   28   98 1    
    60   29   30 am   BACKBONE|DICT|INTERRES
    61   29   99 1    
    62   30   31 2    
    63   30   32 1    
    64   32   33 1    
    65   32   34 1    
    66   32  100 1    
    67   33  101 1    
    68   33  102 1    
    69   33  103 1    
    70   34   35 am   BACKBONE|DICT|INTERRES
    71   34  104 1    
    72   35   36 2    
    73   37   38 2    
    74   37   39 am   BACKBONE|DICT|INTERRES
    75   39   40 1    
    76   39  105 1    
    77   40   41 1    
    78   40   42 1    
    79   40  106 1    
    80   41  107 1    
    81   41  108 1    
    82   41  109 1    
    83   42   43 2    
    84   42   44 am   BACKBONE|DICT|INTERRES
    85   44   45 1    
    86   44  110 1    
    87   45   46 1    
    88   45   47 1    
    89   45  111 1    
    90   46  112 1    
    91   46  113 1    
    92   46  114 1    
    93   47   48 2    
    94   47   49 am   BACKBONE|DICT|INTERRES
    95   49   50 1    
    96   49  115 1    
    97   50   51 1    
    98   50   52 1    
    99   50  116 1    
   100   51  117 1    
   101   51  118 1    
   102   51  119 1    
   103   52   53 2    
   104   52   54 am   BACKBONE|DICT|INTERRES
   105   54   55 1    
   106   54  120 1    
   107   55   56 1    
   108   55   57 1    
   109   55  121 1    
   110   56  122 1    
   111   56  123 1    
   112   56  124 1    
   113   57   58 2    
   114   57   59 am   BACKBONE|DICT|INTERRES
   115   59   60 1    
   116   59  125 1    
   117   60   61 1    
   118   60   62 1    
   119   60  126 1    
   120   61  127 1    
   121   61  128 1    
   122   61  129 1    
   123   62   63 2    
   124   62   64 am   BACKBONE|DICT|INTERRES
   125   64   65 1    
   126   64  130 1    
   127   65   66 1    
   128   65   69 1    
   129   65  131 1    
   130   66   67 am   BACKBONE|DICT|INTERRES
   131   66   68 2    
   132   67  132 1    
   133   67  133 1    
   134   69   70 1    
   135   69  134 1    
   136   69  135 1    
   137   70   71 1    
   138   71  136 1    
   139   71  137 1    
@<TRIPOS>SUBSTRUCTURE
     1 UNK         1 GROUP             0       ****    0 ROOT    
