@<TRIPOS>MOLECULE
3R136
137   139    1
SMALL
USER_CHARGES


@<TRIPOS>ATOM
      1 CA         25.0634   21.3268    3.5905 C.3       0 UNK        -0.1979 
      2 C          26.0588   22.2156    2.8610 C.2       0 UNK         0.4864 
      3 O          25.7315   22.7679    1.8104 O.2       0 UNK        -0.5359 
      4 N          27.2688   22.3803    3.4160 N.am      1 UNK        -0.4318 
      5 CA         28.3673   23.1647    2.8313 C.3       1 UNK         0.0824 
      6 C6         29.6870   22.9624    3.6178 C.3       12 UNK        -0.0944 
      7 S7         31.1517   23.1484    2.5505 S.3       12 UNK        -0.2672 
      8 C8         31.7409   24.7840    3.0771 C.3       12 UNK         0.0333 
      9 C9         32.6523   25.3955    2.0289 C.ar      12 UNK        -0.0807 
     10 C10        34.0401   25.3216    2.1627 C.ar      12 UNK        -0.0894 
     11 C11        34.8789   25.9049    1.2065 C.ar      12 UNK        -0.0804 
     12 C12        34.3150   26.5486    0.0984 C.ar      12 UNK        -0.0824 
     13 C13        32.9253   26.6103   -0.0530 C.ar      12 UNK        -0.0762 
     14 C14        32.1007   26.0411    0.9209 C.ar      12 UNK        -0.0782 
     15 C15        32.2977   27.2781   -1.2659 C.3       12 UNK         0.0230 
     16 S16        31.5732   28.8779   -0.8059 S.3       12 UNK        -0.2608 
     17 C17        30.3009   29.1153   -2.0879 C.3       12 UNK        -0.0989 
     18 CA         28.8678   28.6501   -1.7088 C.3       5 UNK         0.0716 
     19 N          28.7416   27.2269   -1.4261 N.am      5 UNK        -0.4135 
     20 C          28.6399   26.2601   -2.3426 C.2       4 UNK         0.5031 
     21 O          28.8875   26.4139   -3.5392 O.2       4 UNK        -0.5229 
     22 CA         28.1017   24.9082   -1.8467 C.3       4 UNK         0.0329 
     23 CB         29.2275   24.0413   -1.2589 C.3       4 UNK        -0.2001 
     24 N          27.0191   25.0832   -0.8684 N.am      4 UNK        -0.4303 
     25 C          25.7831   25.5068   -1.1884 C.2       3 UNK         0.5044 
     26 O          25.4304   25.7394   -2.3454 O.2       3 UNK        -0.5152 
     27 CA         24.7538   25.7093   -0.0599 C.3       3 UNK         0.0319 
     28 CB         23.6484   24.6428   -0.1416 C.3       3 UNK        -0.2001 
     29 N          25.3597   25.6679    1.2711 N.am      3 UNK        -0.4354 
     30 C          25.7503   26.7495    1.9632 C.2       2 UNK         0.4964 
     31 O          25.5393   27.9065    1.5981 O.2       2 UNK        -0.5047 
     32 CA         26.5046   26.5247    3.2908 C.3       2 UNK         0.0288 
     33 CB         25.5763   26.7959    4.4865 C.3       2 UNK        -0.2113 
     34 N          27.0909   25.1889    3.4406 N.am      2 UNK        -0.4145 
     35 C          28.0252   24.6614    2.6357 C.2       1 UNK         0.5006 
     36 O          28.5483   25.2911    1.7162 O.2       1 UNK        -0.5103 
     37 C          28.2137   29.3718   -0.5164 C.2       5 UNK         0.5055 
     38 O          28.3946   28.9383    0.6259 O.2       5 UNK        -0.5220 
     39 N          27.3918   30.3835   -0.8318 N.am      6 UNK        -0.4450 
     40 CA         26.3552   30.9871    0.0145 C.3       6 UNK         0.0367 
     41 CB         25.7447   32.1893   -0.7285 C.3       6 UNK        -0.1929 
     42 C          26.8037   31.3820    1.4330 C.2       6 UNK         0.5070 
     43 O          27.3791   32.4568    1.6132 O.2       6 UNK        -0.5237 
     44 N          26.5058   30.5039    2.4026 N.am      7 UNK        -0.4739 
     45 CA         26.7307   30.6473    3.8477 C.3       7 UNK         0.0276 
     46 CB         25.7708   31.7046    4.4325 C.3       7 UNK        -0.1927 
     47 C          28.2018   30.9003    4.2358 C.2       7 UNK         0.5013 
     48 O          28.4639   31.5915    5.2220 O.2       7 UNK        -0.5193 
     49 N          29.1360   30.3456    3.4510 N.am      8 UNK        -0.4253 
     50 CA         30.5752   30.5829    3.5861 C.3       8 UNK         0.0242 
     51 CB         31.2792   30.0493    2.3364 C.3       8 UNK        -0.2000 
     52 C          31.2168   29.9901    4.8505 C.2       8 UNK         0.4948 
     53 O          32.2304   30.5247    5.3035 O.2       8 UNK        -0.5275 
     54 N          30.6382   28.9030    5.3853 N.am      9 UNK        -0.4246 
     55 CA         31.1111   28.1426    6.5489 C.3       9 UNK         0.0261 
     56 CB         30.9030   28.9518    7.8497 C.3       9 UNK        -0.1959 
     57 C          32.5549   27.6472    6.3364 C.2       9 UNK         0.5033 
     58 O          32.7670   26.7811    5.4880 O.2       9 UNK        -0.5390 
     59 N          33.5269   28.2225    7.0558 N.am      10 UNK        -0.4215 
     60 CA         34.9615   27.9528    6.9197 C.3       10 UNK         0.0240 
     61 CB         35.6659   28.3451    8.2328 C.3       10 UNK        -0.1982 
     62 C          35.5780   28.6424    5.6816 C.2       10 UNK         0.4970 
     63 O          36.5537   29.3839    5.8139 O.2       10 UNK        -0.4916 
     64 N          34.9974   28.3766    4.5052 N.am      11 UNK        -0.4279 
     65 CA         35.4314   28.8445    3.1767 C.3       11 UNK         0.1003 
     66 C          35.3606   30.3888    2.9615 C.2       11 UNK         0.5709 
     67 N          34.5834   31.1386    3.7328 N.am      11 UNK        -0.7358 
     68 O          36.0047   30.9246    2.0620 O.2       11 UNK        -0.4999 
     69 C69        36.8082   28.2575    2.7379 C.3       12 UNK        -0.0954 
     70 S70        36.9756   26.4537    2.9625 S.3       12 UNK        -0.2268 
     71 C71        36.3923   25.8122    1.3591 C.3       12 UNK         0.0203 
     72 H72        24.7671   20.4955    2.9514 H         1 UNK         0.0888 
     73 H73        25.4798   20.9165    4.5102 H         1 UNK         0.0888 
     74 H74        24.1699   21.8958    3.8455 H         1 UNK         0.0888 
     75 H75        27.4788   21.9079    4.2843 H         1 UNK         0.3017 
     76 H76        28.5073   22.7564    1.8275 H         1 UNK         0.0873 
     77 H77        29.7489   23.6214    4.4864 H         1 UNK         0.0745 
     78 H78        29.7343   21.9475    4.0162 H         1 UNK         0.0745 
     79 H79        30.8988   25.4541    3.2558 H         1 UNK         0.0705 
     80 H80        32.2615   24.6791    4.0294 H         1 UNK         0.0705 
     81 H81        34.4695   24.8175    3.0179 H         1 UNK         0.1334 
     82 H82        34.9560   26.9932   -0.6507 H         1 UNK         0.1417 
     83 H83        31.0253   26.1009    0.8172 H         1 UNK         0.1562 
     84 H84        31.5301   26.6213   -1.6756 H         1 UNK         0.0748 
     85 H85        33.0324   27.4283   -2.0582 H         1 UNK         0.0748 
     86 H86        30.2827   30.1768   -2.3399 H         1 UNK         0.0940 
     87 H87        30.6216   28.6107   -3.0006 H         1 UNK         0.0940 
     88 H88        28.2345   28.8485   -2.5770 H         1 UNK         0.0703 
     89 H89        28.5340   27.0246   -0.4548 H         1 UNK         0.3081 
     90 H90        27.6925   24.3775   -2.7092 H         1 UNK         0.0719 
     91 H91        29.7381   24.5331   -0.4323 H         1 UNK         0.0809 
     92 H92        28.8473   23.0859   -0.8973 H         1 UNK         0.0809 
     93 H93        29.9820   23.8243   -2.0161 H         1 UNK         0.0809 
     94 H94        27.2645   24.9643    0.1070 H         1 UNK         0.2990 
     95 H95        24.2866   26.6831   -0.2217 H         1 UNK         0.0690 
     96 H96        23.1228   24.6984   -1.0958 H         1 UNK         0.0788 
     97 H97        22.9060   24.7794    0.6448 H         1 UNK         0.0788 
     98 H98        24.0510   23.6335   -0.0521 H         1 UNK         0.0788 
     99 H99        25.5462   24.7398    1.6411 H         1 UNK         0.2993 
    100 H100       27.3220   27.2489    3.3115 H         1 UNK         0.0949 
    101 H101       26.1294   26.7980    5.4260 H         1 UNK         0.0767 
    102 H102       25.0860   27.7661    4.3975 H         1 UNK         0.0767 
    103 H103       24.7883   26.0454    4.5611 H         1 UNK         0.0767 
    104 H104       26.6994   24.6006    4.1617 H         1 UNK         0.3013 
    105 H105       27.3634   30.6687   -1.7999 H         1 UNK         0.3121 
    106 H106       25.5649   30.2404    0.1162 H         1 UNK         0.0774 
    107 H107       26.4953   32.9484   -0.9526 H         1 UNK         0.0815 
    108 H108       24.9693   32.6668   -0.1275 H         1 UNK         0.0815 
    109 H109       25.2813   31.8861   -1.6674 H         1 UNK         0.0815 
    110 H110       26.1005   29.6152    2.1103 H         1 UNK         0.2987 
    111 H111       26.4721   29.6877    4.2944 H         1 UNK         0.0949 
    112 H112       26.0045   32.7056    4.0681 H         1 UNK         0.0806 
    113 H113       24.7348   31.4863    4.1734 H         1 UNK         0.0806 
    114 H114       25.8305   31.7320    5.5212 H         1 UNK         0.0806 
    115 H115       28.8313   29.8271    2.6334 H         1 UNK         0.3010 
    116 H116       30.7300   31.6634    3.6253 H         1 UNK         0.0829 
    117 H117       30.9104   30.5561    1.4450 H         1 UNK         0.0813 
    118 H118       32.3547   30.2162    2.3779 H         1 UNK         0.0813 
    119 H119       31.1188   28.9777    2.2080 H         1 UNK         0.0813 
    120 H120       29.8303   28.5268    4.9113 H         1 UNK         0.3038 
    121 H121       30.4893   27.2484    6.6132 H         1 UNK         0.0769 
    122 H122       31.4434   29.8989    7.8448 H         1 UNK         0.0811 
    123 H123       31.2279   28.3853    8.7236 H         1 UNK         0.0811 
    124 H124       29.8478   29.1831    7.9959 H         1 UNK         0.0811 
    125 H125       33.2681   28.9781    7.6737 H         1 UNK         0.3204 
    126 H126       35.0998   26.8782    6.7818 H         1 UNK         0.0748 
    127 H127       36.7300   28.1083    8.1921 H         1 UNK         0.0771 
    128 H128       35.5760   29.4130    8.4361 H         1 UNK         0.0771 
    129 H129       35.2497   27.8046    9.0832 H         1 UNK         0.0771 
    130 H130       34.1894   27.7622    4.5174 H         1 UNK         0.2980 
    131 H131       34.6840   28.4488    2.4893 H         1 UNK         0.0545 
    132 H132       34.5566   32.1322    3.5735 H         1 UNK         0.3459 
    133 H133       33.9786   30.7305    4.4379 H         1 UNK         0.3459 
    134 H134       37.0055   28.4915    1.6904 H         1 UNK         0.0616 
    135 H135       37.6116   28.7306    3.3048 H         1 UNK         0.0616 
    136 H136       36.9053   26.3369    0.5517 H         1 UNK         0.0634 
    137 H137       36.6843   24.7645    1.2786 H         1 UNK         0.0634 
@<TRIPOS>BOND
     1    1    2 1    
     2    1   72 1    
     3    1   73 1    
     4    1   74 1    
     5    2    3 2    
     6    2    4 am   BACKBONE|DICT|INTERRES
     7    4    5 1    
     8    4   75 1    
     9    5    6 1    
    10    5   35 1    
    11    5   76 1    
    12    6    7 1    
    13    6   77 1    
    14    6   78 1    
    15    7    8 1    
    16    8    9 1    
    17    8   79 1    
    18    8   80 1    
    19    9   10 ar   
    20    9   14 ar   
    21   10   11 ar   
    22   10   81 1    
    23   11   12 ar   
    24   11   71 1    
    25   12   13 ar   
    26   12   82 1    
    27   13   14 ar   
    28   13   15 1    
    29   14   83 1    
    30   15   16 1    
    31   15   84 1    
    32   15   85 1    
    33   16   17 1    
    34   17   18 1    
    35   17   86 1    
    36   17   87 1    
    37   18   19 1    
    38   18   37 1    
    39   18   88 1    
    40   19   20 am   BACKBONE|DICT|INTERRES
    41   19   89 1    
    42   20   21 2    
    43   20   22 1    
    44   22   23 1    
    45   22   24 1    
    46   22   90 1    
    47   23   91 1    
    48   23   92 1    
    49   23   93 1    
    50   24   25 am   BACKBONE|DICT|INTERRES
    51   24   94 1    
    52   25   26 2    
    53   25   27 1    
    54   27   28 1    
    55   27   29 1    
    56   27   95 1    
    57   28   96 1    
    58   28   97 1    
    59   28   98 1    
    60   29   30 am   BACKBONE|DICT|INTERRES
    61   29   99 1    
    62   30   31 2    
    63   30   32 1    
    64   32   33 1    
    65   32   34 1    
    66   32  100 1    
    67   33  101 1    
    68   33  102 1    
    69   33  103 1    
    70   34   35 am   BACKBONE|DICT|INTERRES
    71   34  104 1    
    72   35   36 2    
    73   37   38 2    
    74   37   39 am   BACKBONE|DICT|INTERRES
    75   39   40 1    
    76   39  105 1    
    77   40   41 1    
    78   40   42 1    
    79   40  106 1    
    80   41  107 1    
    81   41  108 1    
    82   41  109 1    
    83   42   43 2    
    84   42   44 am   BACKBONE|DICT|INTERRES
    85   44   45 1    
    86   44  110 1    
    87   45   46 1    
    88   45   47 1    
    89   45  111 1    
    90   46  112 1    
    91   46  113 1    
    92   46  114 1    
    93   47   48 2    
    94   47   49 am   BACKBONE|DICT|INTERRES
    95   49   50 1    
    96   49  115 1    
    97   50   51 1    
    98   50   52 1    
    99   50  116 1    
   100   51  117 1    
   101   51  118 1    
   102   51  119 1    
   103   52   53 2    
   104   52   54 am   BACKBONE|DICT|INTERRES
   105   54   55 1    
   106   54  120 1    
   107   55   56 1    
   108   55   57 1    
   109   55  121 1    
   110   56  122 1    
   111   56  123 1    
   112   56  124 1    
   113   57   58 2    
   114   57   59 am   BACKBONE|DICT|INTERRES
   115   59   60 1    
   116   59  125 1    
   117   60   61 1    
   118   60   62 1    
   119   60  126 1    
   120   61  127 1    
   121   61  128 1    
   122   61  129 1    
   123   62   63 2    
   124   62   64 am   BACKBONE|DICT|INTERRES
   125   64   65 1    
   126   64  130 1    
   127   65   66 1    
   128   65   69 1    
   129   65  131 1    
   130   66   67 am   BACKBONE|DICT|INTERRES
   131   66   68 2    
   132   67  132 1    
   133   67  133 1    
   134   69   70 1    
   135   69  134 1    
   136   69  135 1    
   137   70   71 1    
   138   71  136 1    
   139   71  137 1    
@<TRIPOS>SUBSTRUCTURE
     1 UNK         1 GROUP             0       ****    0 ROOT    
