@<TRIPOS>MOLECULE
3R136
137   139    1
SMALL
USER_CHARGES


@<TRIPOS>ATOM
      1 CA         34.4472   23.6415   -1.2155 C.3       0 UNK        -0.1979 
      2 C          33.0333   23.2555   -0.8067 C.2       0 UNK         0.4864 
      3 O          32.2845   22.7322   -1.6339 O.2       0 UNK        -0.5359 
      4 N          32.6761   23.5085    0.4609 N.am      1 UNK        -0.4318 
      5 CA         31.3662   23.2461    1.0765 C.3       1 UNK         0.0824 
      6 C6         31.1099   21.7219    1.2848 C.3       12 UNK        -0.0944 
      7 S7         32.2800   21.0029    2.4897 S.3       12 UNK        -0.2672 
      8 C8         31.2575   20.8903    3.9971 C.3       12 UNK         0.0333 
      9 C9         30.7795   22.2602    4.4576 C.ar      12 UNK        -0.0807 
     10 C10        31.6087   23.0738    5.2356 C.ar      12 UNK        -0.0894 
     11 C11        31.1885   24.3510    5.6195 C.ar      12 UNK        -0.0804 
     12 C12        29.9406   24.8192    5.1986 C.ar      12 UNK        -0.0824 
     13 C13        29.0940   24.0080    4.4337 C.ar      12 UNK        -0.0762 
     14 C14        29.5132   22.7223    4.0862 C.ar      12 UNK        -0.0782 
     15 C15        27.7575   24.5275    3.9194 C.3       12 UNK         0.0230 
     16 S16        26.8003   25.4204    5.1868 S.3       12 UNK        -0.2608 
     17 C17        25.7019   26.4471    4.1538 C.3       12 UNK        -0.0989 
     18 CA         26.3211   27.8428    3.8823 C.3       5 UNK         0.0716 
     19 N          27.4579   27.7479    2.9621 N.am      5 UNK        -0.4135 
     20 C          28.5932   28.4517    3.0669 C.2       4 UNK         0.5031 
     21 O          28.8324   29.2238    3.9938 O.2       4 UNK        -0.5229 
     22 CA         29.6439   28.2704    1.9503 C.3       4 UNK         0.0329 
     23 CB         30.7630   27.3321    2.4232 C.3       4 UNK        -0.2001 
     24 N          29.1104   27.7699    0.6786 N.am      4 UNK        -0.4303 
     25 C          28.1416   28.3591   -0.0382 C.2       3 UNK         0.5044 
     26 O          27.6280   29.4330    0.2726 O.2       3 UNK        -0.5152 
     27 CA         27.5855   27.6070   -1.2598 C.3       3 UNK         0.0319 
     28 CB         28.1487   28.2079   -2.5567 C.3       3 UNK        -0.2001 
     29 N          27.8227   26.1605   -1.2545 N.am      3 UNK        -0.4354 
     30 C          27.4574   25.2913   -0.2998 C.2       2 UNK         0.4964 
     31 O          26.8633   25.6120    0.7318 O.2       2 UNK        -0.5047 
     32 CA         27.8537   23.8182   -0.5233 C.3       2 UNK         0.0288 
     33 CB         28.0540   23.4580   -2.0128 C.3       2 UNK        -0.2113 
     34 N          29.0346   23.3936    0.2434 N.am      2 UNK        -0.4145 
     35 C          30.2276   24.0063    0.3454 C.2       1 UNK         0.5006 
     36 O          30.4527   25.1385   -0.0923 O.2       1 UNK        -0.5103 
     37 C          25.2566   28.8446    3.3804 C.2       5 UNK         0.5055 
     38 O          24.3309   29.1441    4.1369 O.2       5 UNK        -0.5220 
     39 N          25.3806   29.3428    2.1410 N.am      6 UNK        -0.4450 
     40 CA         24.4705   30.3205    1.5393 C.3       6 UNK         0.0367 
     41 CB         24.1121   29.8730    0.1116 C.3       6 UNK        -0.1929 
     42 C          25.0983   31.7223    1.5243 C.2       6 UNK         0.5070 
     43 O          24.4204   32.6925    1.8648 O.2       6 UNK        -0.5237 
     44 N          26.3738   31.8015    1.1275 N.am      7 UNK        -0.4739 
     45 CA         27.1808   33.0195    1.0763 C.3       7 UNK         0.0276 
     46 CB         27.9633   33.0192   -0.2539 C.3       7 UNK        -0.1927 
     47 C          28.0902   33.1025    2.3187 C.2       7 UNK         0.5013 
     48 O          27.6989   32.6511    3.3979 O.2       7 UNK        -0.5193 
     49 N          29.2848   33.6885    2.1569 N.am      8 UNK        -0.4253 
     50 CA         30.3523   33.6953    3.1599 C.3       8 UNK         0.0242 
     51 CB         31.4257   34.7142    2.7433 C.3       8 UNK        -0.2000 
     52 C          30.9708   32.2950    3.3078 C.2       8 UNK         0.4948 
     53 O          30.9858   31.5336    2.3375 O.2       8 UNK        -0.5275 
     54 N          31.4995   31.9958    4.5018 N.am      9 UNK        -0.4246 
     55 CA         32.0344   30.6913    4.9137 C.3       9 UNK         0.0261 
     56 CB         32.1383   30.6601    6.4503 C.3       9 UNK        -0.1959 
     57 C          33.3561   30.2848    4.2259 C.2       9 UNK         0.5033 
     58 O          34.3279   29.9371    4.9005 O.2       9 UNK        -0.5390 
     59 N          33.3681   30.2902    2.8895 N.am      10 UNK        -0.4215 
     60 CA         34.4407   29.7822    2.0327 C.3       10 UNK         0.0240 
     61 CB         34.3605   30.4918    0.6683 C.3       10 UNK        -0.1982 
     62 C          34.3515   28.2482    1.9142 C.2       10 UNK         0.4970 
     63 O          34.1421   27.7217    0.8203 O.2       10 UNK        -0.4916 
     64 N          34.4607   27.5660    3.0603 N.am      11 UNK        -0.4279 
     65 CA         34.2672   26.1160    3.2177 C.3       11 UNK         0.1003 
     66 C          35.2962   25.2266    2.4680 C.2       11 UNK         0.5709 
     67 N          36.4880   25.7141    2.1461 N.am      11 UNK        -0.7358 
     68 O          34.9904   24.0792    2.1568 O.2       11 UNK        -0.4999 
     69 C69        34.1895   25.7128    4.7118 C.3       12 UNK        -0.0954 
     70 S70        32.8553   26.5799    5.6048 S.3       12 UNK        -0.2268 
     71 C71        32.0627   25.2186    6.5137 C.3       12 UNK         0.0203 
     72 H72        34.8546   24.4187   -0.5693 H         1 UNK         0.0888 
     73 H73        35.1032   22.7730   -1.1661 H         1 UNK         0.0888 
     74 H74        34.4563   24.0206   -2.2371 H         1 UNK         0.0888 
     75 H75        33.3840   23.8706    1.0921 H         1 UNK         0.3017 
     76 H76        31.4121   23.7139    2.0608 H         1 UNK         0.0873 
     77 H77        30.1016   21.5085    1.6349 H         1 UNK         0.0745 
     78 H78        31.2116   21.1824    0.3417 H         1 UNK         0.0745 
     79 H79        30.4102   20.2277    3.8131 H         1 UNK         0.0705 
     80 H80        31.8443   20.4203    4.7877 H         1 UNK         0.0705 
     81 H81        32.5817   22.7115    5.5385 H         1 UNK         0.1334 
     82 H82        29.6289   25.8185    5.4714 H         1 UNK         0.1417 
     83 H83        28.8634   22.0905    3.4969 H         1 UNK         0.1562 
     84 H84        27.1416   23.7146    3.5317 H         1 UNK         0.0748 
     85 H85        27.9694   25.1793    3.0751 H         1 UNK         0.0748 
     86 H86        25.4632   25.9289    3.2226 H         1 UNK         0.0940 
     87 H87        24.7590   26.5395    4.6967 H         1 UNK         0.0940 
     88 H88        26.6660   28.2413    4.8391 H         1 UNK         0.0703 
     89 H89        27.3458   27.1143    2.1781 H         1 UNK         0.3081 
     90 H90        30.0772   29.2491    1.7471 H         1 UNK         0.0719 
     91 H91        30.3836   26.3395    2.6669 H         1 UNK         0.0809 
     92 H92        31.5284   27.2164    1.6565 H         1 UNK         0.0809 
     93 H93        31.2506   27.7252    3.3154 H         1 UNK         0.0809 
     94 H94        29.4873   26.8877    0.3435 H         1 UNK         0.2990 
     95 H95        26.5037   27.7535   -1.2569 H         1 UNK         0.0690 
     96 H96        27.6833   27.7631   -3.4365 H         1 UNK         0.0788 
     97 H97        29.2268   28.0603   -2.6338 H         1 UNK         0.0788 
     98 H98        27.9624   29.2821   -2.6030 H         1 UNK         0.0788 
     99 H99        28.3453   25.7929   -2.0365 H         1 UNK         0.2993 
    100 H100       27.0135   23.2279   -0.1539 H         1 UNK         0.0949 
    101 H101       28.1548   22.3800   -2.1404 H         1 UNK         0.0767 
    102 H102       27.2004   23.7699   -2.6168 H         1 UNK         0.0767 
    103 H103       28.9498   23.9178   -2.4327 H         1 UNK         0.0767 
    104 H104       28.9468   22.4851    0.6741 H         1 UNK         0.3013 
    105 H105       26.2089   29.1171    1.6014 H         1 UNK         0.3121 
    106 H106       23.5419   30.3784    2.1112 H         1 UNK         0.0774 
    107 H107       24.9908   29.8128   -0.5314 H         1 UNK         0.0815 
    108 H108       23.4176   30.5748   -0.3522 H         1 UNK         0.0815 
    109 H109       23.6312   28.8947    0.1131 H         1 UNK         0.0815 
    110 H110       26.8590   30.9442    0.8693 H         1 UNK         0.2987 
    111 H111       26.5329   33.8984    1.0917 H         1 UNK         0.0949 
    112 H112       28.7102   32.2237   -0.2824 H         1 UNK         0.0806 
    113 H113       27.2941   32.8706   -1.1018 H         1 UNK         0.0806 
    114 H114       28.4741   33.9678   -0.4222 H         1 UNK         0.0806 
    115 H115       29.5389   34.0018    1.2320 H         1 UNK         0.3010 
    116 H116       29.9258   33.9984    4.1187 H         1 UNK         0.0829 
    117 H117       31.0063   35.7157    2.6453 H         1 UNK         0.0813 
    118 H118       32.2228   34.7702    3.4859 H         1 UNK         0.0813 
    119 H119       31.8873   34.4482    1.7911 H         1 UNK         0.0813 
    120 H120       31.4865   32.7078    5.2180 H         1 UNK         0.3038 
    121 H121       31.3032   29.9335    4.6273 H         1 UNK         0.0769 
    122 H122       32.8525   31.3960    6.8216 H         1 UNK         0.0811 
    123 H123       32.4668   29.6801    6.8001 H         1 UNK         0.0811 
    124 H124       31.1737   30.8577    6.9182 H         1 UNK         0.0811 
    125 H125       32.5158   30.6108    2.4290 H         1 UNK         0.3204 
    126 H126       35.4060   30.0241    2.4823 H         1 UNK         0.0748 
    127 H127       35.1558   30.1527    0.0031 H         1 UNK         0.0771 
    128 H128       33.4099   30.2994    0.1685 H         1 UNK         0.0771 
    129 H129       34.4676   31.5712    0.7770 H         1 UNK         0.0771 
    130 H130       34.5987   28.0937    3.9149 H         1 UNK         0.2980 
    131 H131       33.2993   25.8826    2.7710 H         1 UNK         0.0545 
    132 H132       37.1440   25.1288    1.6541 H         1 UNK         0.3459 
    133 H133       36.7385   26.6580    2.3923 H         1 UNK         0.3459 
    134 H134       34.0380   24.6363    4.8047 H         1 UNK         0.0616 
    135 H135       35.1326   25.9312    5.2158 H         1 UNK         0.0616 
    136 H136       32.8268   24.6209    7.0131 H         1 UNK         0.0634 
    137 H137       31.4466   25.6451    7.3065 H         1 UNK         0.0634 
@<TRIPOS>BOND
     1    1    2 1    
     2    1   72 1    
     3    1   73 1    
     4    1   74 1    
     5    2    3 2    
     6    2    4 am   BACKBONE|DICT|INTERRES
     7    4    5 1    
     8    4   75 1    
     9    5    6 1    
    10    5   35 1    
    11    5   76 1    
    12    6    7 1    
    13    6   77 1    
    14    6   78 1    
    15    7    8 1    
    16    8    9 1    
    17    8   79 1    
    18    8   80 1    
    19    9   10 ar   
    20    9   14 ar   
    21   10   11 ar   
    22   10   81 1    
    23   11   12 ar   
    24   11   71 1    
    25   12   13 ar   
    26   12   82 1    
    27   13   14 ar   
    28   13   15 1    
    29   14   83 1    
    30   15   16 1    
    31   15   84 1    
    32   15   85 1    
    33   16   17 1    
    34   17   18 1    
    35   17   86 1    
    36   17   87 1    
    37   18   19 1    
    38   18   37 1    
    39   18   88 1    
    40   19   20 am   BACKBONE|DICT|INTERRES
    41   19   89 1    
    42   20   21 2    
    43   20   22 1    
    44   22   23 1    
    45   22   24 1    
    46   22   90 1    
    47   23   91 1    
    48   23   92 1    
    49   23   93 1    
    50   24   25 am   BACKBONE|DICT|INTERRES
    51   24   94 1    
    52   25   26 2    
    53   25   27 1    
    54   27   28 1    
    55   27   29 1    
    56   27   95 1    
    57   28   96 1    
    58   28   97 1    
    59   28   98 1    
    60   29   30 am   BACKBONE|DICT|INTERRES
    61   29   99 1    
    62   30   31 2    
    63   30   32 1    
    64   32   33 1    
    65   32   34 1    
    66   32  100 1    
    67   33  101 1    
    68   33  102 1    
    69   33  103 1    
    70   34   35 am   BACKBONE|DICT|INTERRES
    71   34  104 1    
    72   35   36 2    
    73   37   38 2    
    74   37   39 am   BACKBONE|DICT|INTERRES
    75   39   40 1    
    76   39  105 1    
    77   40   41 1    
    78   40   42 1    
    79   40  106 1    
    80   41  107 1    
    81   41  108 1    
    82   41  109 1    
    83   42   43 2    
    84   42   44 am   BACKBONE|DICT|INTERRES
    85   44   45 1    
    86   44  110 1    
    87   45   46 1    
    88   45   47 1    
    89   45  111 1    
    90   46  112 1    
    91   46  113 1    
    92   46  114 1    
    93   47   48 2    
    94   47   49 am   BACKBONE|DICT|INTERRES
    95   49   50 1    
    96   49  115 1    
    97   50   51 1    
    98   50   52 1    
    99   50  116 1    
   100   51  117 1    
   101   51  118 1    
   102   51  119 1    
   103   52   53 2    
   104   52   54 am   BACKBONE|DICT|INTERRES
   105   54   55 1    
   106   54  120 1    
   107   55   56 1    
   108   55   57 1    
   109   55  121 1    
   110   56  122 1    
   111   56  123 1    
   112   56  124 1    
   113   57   58 2    
   114   57   59 am   BACKBONE|DICT|INTERRES
   115   59   60 1    
   116   59  125 1    
   117   60   61 1    
   118   60   62 1    
   119   60  126 1    
   120   61  127 1    
   121   61  128 1    
   122   61  129 1    
   123   62   63 2    
   124   62   64 am   BACKBONE|DICT|INTERRES
   125   64   65 1    
   126   64  130 1    
   127   65   66 1    
   128   65   69 1    
   129   65  131 1    
   130   66   67 am   BACKBONE|DICT|INTERRES
   131   66   68 2    
   132   67  132 1    
   133   67  133 1    
   134   69   70 1    
   135   69  134 1    
   136   69  135 1    
   137   70   71 1    
   138   71  136 1    
   139   71  137 1    
@<TRIPOS>SUBSTRUCTURE
     1 UNK         1 GROUP             0       ****    0 ROOT    
