@<TRIPOS>MOLECULE
3R136
137   139    1
SMALL
USER_CHARGES


@<TRIPOS>ATOM
      1 CA         26.9613   27.7548   -1.6624 C.3       0 UNK        -0.1979 
      2 C          27.3352   26.3530   -1.2096 C.2       0 UNK         0.4864 
      3 O          26.5040   25.6584   -0.6238 O.2       0 UNK        -0.5359 
      4 N          28.5726   25.9208   -1.4858 N.am      1 UNK        -0.4318 
      5 CA         29.1639   24.6368   -1.0732 C.3       1 UNK         0.0824 
      6 C6         30.6231   24.4969   -1.5757 C.3       12 UNK        -0.0944 
      7 S7         31.7016   25.8873   -1.0945 S.3       12 UNK        -0.2672 
      8 C8         32.6931   25.1402    0.2350 C.3       12 UNK         0.0333 
      9 C9         31.9393   25.1358    1.5550 C.ar      12 UNK        -0.0807 
     10 C10        31.9580   26.2766    2.3612 C.ar      12 UNK        -0.0894 
     11 C11        31.2899   26.2896    3.5866 C.ar      12 UNK        -0.0804 
     12 C12        30.6100   25.1457    4.0113 C.ar      12 UNK        -0.0824 
     13 C13        30.5568   24.0063    3.2009 C.ar      12 UNK        -0.0762 
     14 C14        31.2316   24.0041    1.9752 C.ar      12 UNK        -0.0782 
     15 C15        29.7715   22.7799    3.6511 C.3       12 UNK         0.0230 
     16 S16        28.0607   22.7778    3.0123 S.3       12 UNK        -0.2608 
     17 C17        27.3449   24.2216    3.8684 C.3       12 UNK        -0.0989 
     18 CA         27.2784   25.4487    2.9135 C.3       5 UNK         0.0716 
     19 N          26.0521   25.4870    2.1113 N.am      5 UNK        -0.4135 
     20 C          24.8101   25.7397    2.5479 C.2       4 UNK         0.5031 
     21 O          24.5099   25.9357    3.7262 O.2       4 UNK        -0.5229 
     22 CA         23.7060   25.7836    1.4793 C.3       4 UNK         0.0329 
     23 CB         23.6193   27.1850    0.8519 C.3       4 UNK        -0.2001 
     24 N          23.8779   24.7825    0.4221 N.am      4 UNK        -0.4303 
     25 C          23.7424   23.4618    0.6052 C.2       3 UNK         0.5044 
     26 O          23.4923   22.9419    1.6932 O.2       3 UNK        -0.5152 
     27 CA         23.8646   22.5697   -0.6345 C.3       3 UNK         0.0319 
     28 CB         22.5825   22.6587   -1.4883 C.3       3 UNK        -0.2001 
     29 N          25.0526   22.8683   -1.4427 N.am      3 UNK        -0.4354 
     30 C          25.5701   22.0017   -2.3282 C.2       2 UNK         0.4964 
     31 O          25.1174   20.8709   -2.5153 O.2       2 UNK        -0.5047 
     32 CA         26.7743   22.4469   -3.1776 C.3       2 UNK         0.0288 
     33 CB         26.3052   22.8924   -4.5729 C.3       2 UNK        -0.2113 
     34 N          27.5758   23.5164   -2.5861 N.am      2 UNK        -0.4145 
     35 C          28.3631   23.3885   -1.5090 C.2       1 UNK         0.5006 
     36 O          28.4920   22.3378   -0.8796 O.2       1 UNK        -0.5103 
     37 C          27.5354   26.8089    3.5967 C.2       5 UNK         0.5055 
     38 O          27.6300   26.8992    4.8224 O.2       5 UNK        -0.5220 
     39 N          27.6496   27.8470    2.7633 N.am      6 UNK        -0.4450 
     40 CA         28.0539   29.1972    3.1279 C.3       6 UNK         0.0367 
     41 CB         26.8095   30.0834    3.3002 C.3       6 UNK        -0.1929 
     42 C          28.9504   29.7096    1.9975 C.2       6 UNK         0.5070 
     43 O          28.6997   29.3804    0.8352 O.2       6 UNK        -0.5237 
     44 N          29.9689   30.4979    2.3487 N.am      7 UNK        -0.4739 
     45 CA         30.9455   31.0755    1.4299 C.3       7 UNK         0.0276 
     46 CB         31.9335   29.9942    0.9454 C.3       7 UNK        -0.1927 
     47 C          31.7010   32.1877    2.1622 C.2       7 UNK         0.5013 
     48 O          31.8178   32.1384    3.3906 O.2       7 UNK        -0.5193 
     49 N          32.2465   33.1401    1.3963 N.am      8 UNK        -0.4253 
     50 CA         33.1527   34.1838    1.8802 C.3       8 UNK         0.0242 
     51 CB         33.0675   35.4008    0.9396 C.3       8 UNK        -0.2000 
     52 C          34.5789   33.6146    1.9864 C.2       8 UNK         0.4948 
     53 O          35.4326   33.9172    1.1500 O.2       8 UNK        -0.5275 
     54 N          34.7852   32.7489    2.9821 N.am      9 UNK        -0.4246 
     55 CA         36.0125   31.9949    3.2217 C.3       9 UNK         0.0261 
     56 CB         35.9903   30.7011    2.3768 C.3       9 UNK        -0.1959 
     57 C          36.1599   31.7412    4.7307 C.2       9 UNK         0.5033 
     58 O          35.6135   32.5025    5.5342 O.2       9 UNK        -0.5390 
     59 N          36.8707   30.6640    5.0967 N.am      10 UNK        -0.4215 
     60 CA         37.1448   30.2272    6.4741 C.3       10 UNK         0.0240 
     61 CB         38.0430   28.9796    6.4332 C.3       10 UNK        -0.1982 
     62 C          35.8974   29.9615    7.3420 C.2       10 UNK         0.4970 
     63 O          36.0116   29.9653    8.5684 O.2       10 UNK        -0.4916 
     64 N          34.7383   29.7603    6.7025 N.am      11 UNK        -0.4279 
     65 CA         33.4145   29.7105    7.3387 C.3       11 UNK         0.1003 
     66 C          32.9755   31.0446    8.0145 C.2       11 UNK         0.5709 
     67 N          33.5553   32.1908    7.6730 N.am      11 UNK        -0.7358 
     68 O          32.0921   31.0347    8.8685 O.2       11 UNK        -0.4999 
     69 C69        32.3234   29.2417    6.3422 C.3       12 UNK        -0.0954 
     70 S70        32.6796   27.6294    5.5719 S.3       12 UNK        -0.2268 
     71 C71        31.2712   27.5518    4.4312 C.3       12 UNK         0.0203 
     72 H72        26.6563   28.3555   -0.8062 H         1 UNK         0.0888 
     73 H73        27.7953   28.2616   -2.1474 H         1 UNK         0.0888 
     74 H74        26.1295   27.7135   -2.3647 H         1 UNK         0.0888 
     75 H75        29.2140   26.5442   -1.9563 H         1 UNK         0.3017 
     76 H76        29.1736   24.6334    0.0182 H         1 UNK         0.0873 
     77 H77        30.6422   24.4359   -2.6658 H         1 UNK         0.0745 
     78 H78        31.0629   23.5629   -1.2206 H         1 UNK         0.0745 
     79 H79        33.0029   24.1314   -0.0417 H         1 UNK         0.0705 
     80 H80        33.6138   25.7152    0.3454 H         1 UNK         0.0705 
     81 H81        32.4915   27.1568    2.0310 H         1 UNK         0.1334 
     82 H82        30.1007   25.1566    4.9650 H         1 UNK         0.1417 
     83 H83        31.2008   23.1232    1.3482 H         1 UNK         0.1562 
     84 H84        29.7540   22.7164    4.7403 H         1 UNK         0.0748 
     85 H85        30.2743   21.8754    3.3057 H         1 UNK         0.0748 
     86 H86        27.9370   24.4149    4.7626 H         1 UNK         0.0940 
     87 H87        26.3544   23.9566    4.2407 H         1 UNK         0.0940 
     88 H88        28.0935   25.3588    2.1933 H         1 UNK         0.0703 
     89 H89        26.1799   25.3905    1.1044 H         1 UNK         0.3081 
     90 H90        22.7569   25.5799    1.9802 H         1 UNK         0.0719 
     91 H91        23.4739   27.9471    1.6189 H         1 UNK         0.0809 
     92 H92        24.5276   27.4421    0.3066 H         1 UNK         0.0809 
     93 H93        22.7800   27.2590    0.1603 H         1 UNK         0.0809 
     94 H94        24.1085   25.1335   -0.4963 H         1 UNK         0.2990 
     95 H95        23.9549   21.5454   -0.2651 H         1 UNK         0.0690 
     96 H96        22.5735   21.9088   -2.2791 H         1 UNK         0.0788 
     97 H97        22.4765   23.6378   -1.9564 H         1 UNK         0.0788 
     98 H98        21.6934   22.4891   -0.8791 H         1 UNK         0.0788 
     99 H99        25.5167   23.7559   -1.2856 H         1 UNK         0.2993 
    100 H100       27.4206   21.5744   -3.2978 H         1 UNK         0.0949 
    101 H101       27.1505   23.1229   -5.2220 H         1 UNK         0.0767 
    102 H102       25.7300   22.1048   -5.0621 H         1 UNK         0.0767 
    103 H103       25.6682   23.7765   -4.5214 H         1 UNK         0.0767 
    104 H104       27.5314   24.4199   -3.0340 H         1 UNK         0.3013 
    105 H105       27.6076   27.6940    1.7634 H         1 UNK         0.3121 
    106 H106       28.6251   29.1824    4.0586 H         1 UNK         0.0774 
    107 H107       26.2215   30.1353    2.3828 H         1 UNK         0.0815 
    108 H108       27.0899   31.1026    3.5686 H         1 UNK         0.0815 
    109 H109       26.1620   29.7046    4.0912 H         1 UNK         0.0815 
    110 H110       30.1046   30.7710    3.3151 H         1 UNK         0.2987 
    111 H111       30.4169   31.5063    0.5764 H         1 UNK         0.0949 
    112 H112       32.4958   29.5669    1.7764 H         1 UNK         0.0806 
    113 H113       31.4240   29.1789    0.4311 H         1 UNK         0.0806 
    114 H114       32.6583   30.4105    0.2448 H         1 UNK         0.0806 
    115 H115       32.1316   33.0813    0.3944 H         1 UNK         0.3010 
    116 H116       32.8424   34.5078    2.8765 H         1 UNK         0.0829 
    117 H117       33.7371   36.1957    1.2708 H         1 UNK         0.0813 
    118 H118       33.3456   35.1457   -0.0839 H         1 UNK         0.0813 
    119 H119       32.0594   35.8152    0.9191 H         1 UNK         0.0813 
    120 H120       34.0325   32.5803    3.6406 H         1 UNK         0.3038 
    121 H121       36.8697   32.6011    2.9212 H         1 UNK         0.0769 
    122 H122       35.8147   30.9217    1.3236 H         1 UNK         0.0811 
    123 H123       35.2042   30.0186    2.7034 H         1 UNK         0.0811 
    124 H124       36.9403   30.1684    2.4264 H         1 UNK         0.0811 
    125 H125       37.2735   30.0966    4.3648 H         1 UNK         0.3204 
    126 H126       37.6998   31.0318    6.9608 H         1 UNK         0.0748 
    127 H127       38.2961   28.6457    7.4407 H         1 UNK         0.0771 
    128 H128       37.5528   28.1462    5.9280 H         1 UNK         0.0771 
    129 H129       38.9824   29.1814    5.9180 H         1 UNK         0.0771 
    130 H130       34.7413   29.7513    5.6950 H         1 UNK         0.2980 
    131 H131       33.4748   28.9691    8.1375 H         1 UNK         0.0545 
    132 H132       33.2606   33.0427    8.1222 H         1 UNK         0.3459 
    133 H133       34.2795   32.2210    6.9620 H         1 UNK         0.3459 
    134 H134       32.1961   29.9819    5.5491 H         1 UNK         0.0616 
    135 H135       31.3582   29.1610    6.8463 H         1 UNK         0.0616 
    136 H136       30.3446   27.6059    5.0042 H         1 UNK         0.0634 
    137 H137       31.2877   28.4288    3.7836 H         1 UNK         0.0634 
@<TRIPOS>BOND
     1    1    2 1    
     2    1   72 1    
     3    1   73 1    
     4    1   74 1    
     5    2    3 2    
     6    2    4 am   BACKBONE|DICT|INTERRES
     7    4    5 1    
     8    4   75 1    
     9    5    6 1    
    10    5   35 1    
    11    5   76 1    
    12    6    7 1    
    13    6   77 1    
    14    6   78 1    
    15    7    8 1    
    16    8    9 1    
    17    8   79 1    
    18    8   80 1    
    19    9   10 ar   
    20    9   14 ar   
    21   10   11 ar   
    22   10   81 1    
    23   11   12 ar   
    24   11   71 1    
    25   12   13 ar   
    26   12   82 1    
    27   13   14 ar   
    28   13   15 1    
    29   14   83 1    
    30   15   16 1    
    31   15   84 1    
    32   15   85 1    
    33   16   17 1    
    34   17   18 1    
    35   17   86 1    
    36   17   87 1    
    37   18   19 1    
    38   18   37 1    
    39   18   88 1    
    40   19   20 am   BACKBONE|DICT|INTERRES
    41   19   89 1    
    42   20   21 2    
    43   20   22 1    
    44   22   23 1    
    45   22   24 1    
    46   22   90 1    
    47   23   91 1    
    48   23   92 1    
    49   23   93 1    
    50   24   25 am   BACKBONE|DICT|INTERRES
    51   24   94 1    
    52   25   26 2    
    53   25   27 1    
    54   27   28 1    
    55   27   29 1    
    56   27   95 1    
    57   28   96 1    
    58   28   97 1    
    59   28   98 1    
    60   29   30 am   BACKBONE|DICT|INTERRES
    61   29   99 1    
    62   30   31 2    
    63   30   32 1    
    64   32   33 1    
    65   32   34 1    
    66   32  100 1    
    67   33  101 1    
    68   33  102 1    
    69   33  103 1    
    70   34   35 am   BACKBONE|DICT|INTERRES
    71   34  104 1    
    72   35   36 2    
    73   37   38 2    
    74   37   39 am   BACKBONE|DICT|INTERRES
    75   39   40 1    
    76   39  105 1    
    77   40   41 1    
    78   40   42 1    
    79   40  106 1    
    80   41  107 1    
    81   41  108 1    
    82   41  109 1    
    83   42   43 2    
    84   42   44 am   BACKBONE|DICT|INTERRES
    85   44   45 1    
    86   44  110 1    
    87   45   46 1    
    88   45   47 1    
    89   45  111 1    
    90   46  112 1    
    91   46  113 1    
    92   46  114 1    
    93   47   48 2    
    94   47   49 am   BACKBONE|DICT|INTERRES
    95   49   50 1    
    96   49  115 1    
    97   50   51 1    
    98   50   52 1    
    99   50  116 1    
   100   51  117 1    
   101   51  118 1    
   102   51  119 1    
   103   52   53 2    
   104   52   54 am   BACKBONE|DICT|INTERRES
   105   54   55 1    
   106   54  120 1    
   107   55   56 1    
   108   55   57 1    
   109   55  121 1    
   110   56  122 1    
   111   56  123 1    
   112   56  124 1    
   113   57   58 2    
   114   57   59 am   BACKBONE|DICT|INTERRES
   115   59   60 1    
   116   59  125 1    
   117   60   61 1    
   118   60   62 1    
   119   60  126 1    
   120   61  127 1    
   121   61  128 1    
   122   61  129 1    
   123   62   63 2    
   124   62   64 am   BACKBONE|DICT|INTERRES
   125   64   65 1    
   126   64  130 1    
   127   65   66 1    
   128   65   69 1    
   129   65  131 1    
   130   66   67 am   BACKBONE|DICT|INTERRES
   131   66   68 2    
   132   67  132 1    
   133   67  133 1    
   134   69   70 1    
   135   69  134 1    
   136   69  135 1    
   137   70   71 1    
   138   71  136 1    
   139   71  137 1    
@<TRIPOS>SUBSTRUCTURE
     1 UNK         1 GROUP             0       ****    0 ROOT    
