@<TRIPOS>MOLECULE
3R136
137   139    1
SMALL
USER_CHARGES


@<TRIPOS>ATOM
      1 CA         29.3615   22.8908   -2.5704 C.3       0 UNK        -0.1979 
      2 C          28.7581   23.3830   -1.2651 C.2       0 UNK         0.4864 
      3 O          28.2697   24.5117   -1.2038 O.2       0 UNK        -0.5359 
      4 N          28.7795   22.5498   -0.2156 N.am      1 UNK        -0.4318 
      5 CA         28.2698   22.8554    1.1299 C.3       1 UNK         0.0824 
      6 C6         28.5092   21.6665    2.0947 C.3       12 UNK        -0.0944 
      7 S7         28.6806   22.1850    3.8333 S.3       12 UNK        -0.2672 
      8 C8         30.4549   21.9199    4.1521 C.3       12 UNK         0.0333 
      9 C9         31.3178   23.1165    3.7653 C.ar      12 UNK        -0.0807 
     10 C10        31.7856   23.9882    4.7549 C.ar      12 UNK        -0.0894 
     11 C11        32.6657   25.0285    4.4364 C.ar      12 UNK        -0.0804 
     12 C12        33.0630   25.1990    3.1073 C.ar      12 UNK        -0.0824 
     13 C13        32.5768   24.3602    2.1000 C.ar      12 UNK        -0.0762 
     14 C14        31.7095   23.3149    2.4370 C.ar      12 UNK        -0.0782 
     15 C15        33.0314   24.5538    0.6574 C.3       12 UNK         0.0230 
     16 S16        32.5549   26.1744   -0.0328 S.3       12 UNK        -0.2608 
     17 C17        30.7366   26.0385   -0.0861 C.3       12 UNK        -0.0989 
     18 CA         29.9853   27.2516    0.5145 C.3       5 UNK         0.0716 
     19 N          28.5536   27.2296    0.1697 N.am      5 UNK        -0.4135 
     20 C          27.7198   28.2538    0.4177 C.2       4 UNK         0.5031 
     21 O          28.1111   29.3472    0.8264 O.2       4 UNK        -0.5229 
     22 CA         26.2046   28.0110    0.2956 C.3       4 UNK         0.0329 
     23 CB         25.4163   29.2929   -0.0524 C.3       4 UNK        -0.2001 
     24 N          25.8286   26.8910   -0.5697 N.am      4 UNK        -0.4303 
     25 C          25.8996   26.8179   -1.9071 C.2       3 UNK         0.5044 
     26 O          26.3625   27.7098   -2.6195 O.2       3 UNK        -0.5152 
     27 CA         25.3483   25.5317   -2.5574 C.3       3 UNK         0.0319 
     28 CB         26.1387   25.1378   -3.8192 C.3       3 UNK        -0.2001 
     29 N          25.3514   24.4061   -1.6176 N.am      3 UNK        -0.4354 
     30 C          24.3122   24.0073   -0.8694 C.2       2 UNK         0.4964 
     31 O          23.1964   24.5234   -0.9298 O.2       2 UNK        -0.5047 
     32 CA         24.5449   22.8557    0.1294 C.3       2 UNK         0.0288 
     33 CB         23.8452   21.5751   -0.3559 C.3       2 UNK        -0.2113 
     34 N          25.9589   22.5573    0.3755 N.am      2 UNK        -0.4145 
     35 C          26.7911   23.3052    1.1160 C.2       1 UNK         0.5006 
     36 O          26.4562   24.3410    1.6945 O.2       1 UNK        -0.5103 
     37 C          30.2036   27.3820    2.0413 C.2       5 UNK         0.5055 
     38 O          31.1689   28.0123    2.4598 O.2       5 UNK        -0.5220 
     39 N          29.2677   26.8501    2.8422 N.am      6 UNK        -0.4450 
     40 CA         29.2650   26.9182    4.3055 C.3       6 UNK         0.0367 
     41 CB         28.2447   25.8995    4.8352 C.3       6 UNK        -0.1929 
     42 C          28.9796   28.3117    4.9036 C.2       6 UNK         0.5070 
     43 O          29.0218   28.4451    6.1283 O.2       6 UNK        -0.5237 
     44 N          28.6520   29.3163    4.0769 N.am      7 UNK        -0.4739 
     45 CA         28.2748   30.6697    4.4983 C.3       7 UNK         0.0276 
     46 CB         27.5227   31.3631    3.3476 C.3       7 UNK        -0.1927 
     47 C          29.4672   31.5046    5.0115 C.2       7 UNK         0.5013 
     48 O          29.8416   32.4965    4.3810 O.2       7 UNK        -0.5193 
     49 N          30.0279   31.0900    6.1566 N.am      8 UNK        -0.4253 
     50 CA         31.0728   31.7486    6.9499 C.3       8 UNK         0.0242 
     51 CB         30.4843   32.9711    7.6897 C.3       8 UNK        -0.2000 
     52 C          32.3258   32.0777    6.1192 C.2       8 UNK         0.4948 
     53 O          33.1319   31.1837    5.8645 O.2       8 UNK        -0.5275 
     54 N          32.4512   33.3387    5.6802 N.am      9 UNK        -0.4246 
     55 CA         33.5191   33.8383    4.8089 C.3       9 UNK         0.0261 
     56 CB         33.3383   35.3507    4.6031 C.3       9 UNK        -0.1959 
     57 C          33.6128   33.1175    3.4508 C.2       9 UNK         0.5033 
     58 O          34.6991   33.0826    2.8698 O.2       9 UNK        -0.5390 
     59 N          32.5041   32.5176    2.9875 N.am      10 UNK        -0.4215 
     60 CA         32.4503   31.6743    1.7894 C.3       10 UNK         0.0240 
     61 CB         30.9930   31.2883    1.4956 C.3       10 UNK        -0.1982 
     62 C          33.3435   30.4190    1.8610 C.2       10 UNK         0.4970 
     63 O          33.7338   29.9196    0.8045 O.2       10 UNK        -0.4916 
     64 N          33.6901   29.9606    3.0751 N.am      11 UNK        -0.4279 
     65 CA         34.6638   28.8813    3.2988 C.3       11 UNK         0.1003 
     66 C          36.1315   29.2655    2.9402 C.2       11 UNK         0.5709 
     67 N          36.4691   30.5362    2.7412 N.am      11 UNK        -0.7358 
     68 O          36.9839   28.3866    2.8359 O.2       11 UNK        -0.4999 
     69 C69        34.5977   28.3066    4.7417 C.3       12 UNK        -0.0954 
     70 S70        32.9485   27.7029    5.2509 S.3       12 UNK        -0.2268 
     71 C71        33.2241   25.9211    5.5419 C.3       12 UNK         0.0203 
     72 H72        30.1242   23.5888   -2.9141 H         1 UNK         0.0888 
     73 H73        29.8235   21.9098   -2.4623 H         1 UNK         0.0888 
     74 H74        28.5909   22.8227   -3.3375 H         1 UNK         0.0888 
     75 H75        29.1818   21.6307   -0.3340 H         1 UNK         0.3017 
     76 H76        28.8524   23.7068    1.4864 H         1 UNK         0.0873 
     77 H77        29.4131   21.1259    1.8116 H         1 UNK         0.0745 
     78 H78        27.7074   20.9285    2.0275 H         1 UNK         0.0745 
     79 H79        30.8040   21.0234    3.6381 H         1 UNK         0.0705 
     80 H80        30.5755   21.7092    5.2159 H         1 UNK         0.0705 
     81 H81        31.4896   23.8338    5.7836 H         1 UNK         0.1334 
     82 H82        33.7506   25.9902    2.8520 H         1 UNK         0.1417 
     83 H83        31.3592   22.6390    1.6698 H         1 UNK         0.1562 
     84 H84        32.6374   23.7660    0.0133 H         1 UNK         0.0748 
     85 H85        34.1178   24.4645    0.6177 H         1 UNK         0.0748 
     86 H86        30.4222   25.1187    0.4051 H         1 UNK         0.0940 
     87 H87        30.4692   25.9313   -1.1381 H         1 UNK         0.0940 
     88 H88        30.4023   28.1528    0.0592 H         1 UNK         0.0703 
     89 H89        28.1886   26.3632   -0.2136 H         1 UNK         0.3081 
     90 H90        25.8885   27.7110    1.2958 H         1 UNK         0.0719 
     91 H91        25.5619   30.0608    0.7084 H         1 UNK         0.0809 
     92 H92        25.7347   29.7200   -1.0036 H         1 UNK         0.0809 
     93 H93        24.3455   29.0985   -0.1114 H         1 UNK         0.0809 
     94 H94        25.4651   26.0804   -0.0875 H         1 UNK         0.2990 
     95 H95        24.3234   25.7487   -2.8649 H         1 UNK         0.0690 
     96 H96        26.0525   25.9053   -4.5894 H         1 UNK         0.0788 
     97 H97        25.7654   24.2081   -4.2487 H         1 UNK         0.0788 
     98 H98        27.2005   25.0098   -3.6085 H         1 UNK         0.0788 
     99 H99        26.2619   23.9960   -1.4474 H         1 UNK         0.2993 
    100 H100       24.0906   23.1562    1.0763 H         1 UNK         0.0949 
    101 H101       23.9364   20.7713    0.3751 H         1 UNK         0.0767 
    102 H102       22.7792   21.7469   -0.5127 H         1 UNK         0.0767 
    103 H103       24.2602   21.2207   -1.3003 H         1 UNK         0.0767 
    104 H104       26.3329   21.7390   -0.0835 H         1 UNK         0.3013 
    105 H105       28.4906   26.3664    2.4167 H         1 UNK         0.3121 
    106 H106       30.2540   26.6199    4.6545 H         1 UNK         0.0774 
    107 H107       27.2304   26.1333    4.5096 H         1 UNK         0.0815 
    108 H108       28.4846   24.8963    4.4925 H         1 UNK         0.0815 
    109 H109       28.2422   25.8713    5.9256 H         1 UNK         0.0815 
    110 H110       28.6713   29.1479    3.0789 H         1 UNK         0.2987 
    111 H111       27.5733   30.5807    5.3309 H         1 UNK         0.0949 
    112 H112       27.1790   32.3541    3.6467 H         1 UNK         0.0806 
    113 H113       28.1547   31.4910    2.4688 H         1 UNK         0.0806 
    114 H114       26.6440   30.7930    3.0460 H         1 UNK         0.0806 
    115 H115       29.7042   30.1917    6.5086 H         1 UNK         0.3010 
    116 H116       31.3901   31.0271    7.7045 H         1 UNK         0.0829 
    117 H117       30.0427   33.6985    7.0077 H         1 UNK         0.0813 
    118 H118       29.7037   32.6636    8.3857 H         1 UNK         0.0813 
    119 H119       31.2485   33.4836    8.2760 H         1 UNK         0.0813 
    120 H120       31.7127   33.9890    5.9072 H         1 UNK         0.3038 
    121 H121       34.4658   33.6722    5.3269 H         1 UNK         0.0769 
    122 H122       32.3909   35.5807    4.1137 H         1 UNK         0.0811 
    123 H123       34.1349   35.7574    3.9784 H         1 UNK         0.0811 
    124 H124       33.3675   35.8878    5.5513 H         1 UNK         0.0811 
    125 H125       31.6471   32.5923    3.5302 H         1 UNK         0.3204 
    126 H126       32.8133   32.2777    0.9550 H         1 UNK         0.0748 
    127 H127       30.9185   30.7065    0.5760 H         1 UNK         0.0771 
    128 H128       30.5740   30.6779    2.2951 H         1 UNK         0.0771 
    129 H129       30.3612   32.1684    1.3763 H         1 UNK         0.0771 
    130 H130       33.3354   30.4138    3.9094 H         1 UNK         0.2980 
    131 H131       34.3959   28.0790    2.6115 H         1 UNK         0.0545 
    132 H132       35.7825   31.2779    2.8107 H         1 UNK         0.3459 
    133 H133       37.4234   30.7588    2.5076 H         1 UNK         0.3459 
    134 H134       34.8976   29.0727    5.4588 H         1 UNK         0.0616 
    135 H135       35.3220   27.4990    4.8543 H         1 UNK         0.0616 
    136 H136       34.2845   25.7068    5.6740 H         1 UNK         0.0634 
    137 H137       32.7524   25.6737    6.4940 H         1 UNK         0.0634 
@<TRIPOS>BOND
     1    1    2 1    
     2    1   72 1    
     3    1   73 1    
     4    1   74 1    
     5    2    3 2    
     6    2    4 am   BACKBONE|DICT|INTERRES
     7    4    5 1    
     8    4   75 1    
     9    5    6 1    
    10    5   35 1    
    11    5   76 1    
    12    6    7 1    
    13    6   77 1    
    14    6   78 1    
    15    7    8 1    
    16    8    9 1    
    17    8   79 1    
    18    8   80 1    
    19    9   10 ar   
    20    9   14 ar   
    21   10   11 ar   
    22   10   81 1    
    23   11   12 ar   
    24   11   71 1    
    25   12   13 ar   
    26   12   82 1    
    27   13   14 ar   
    28   13   15 1    
    29   14   83 1    
    30   15   16 1    
    31   15   84 1    
    32   15   85 1    
    33   16   17 1    
    34   17   18 1    
    35   17   86 1    
    36   17   87 1    
    37   18   19 1    
    38   18   37 1    
    39   18   88 1    
    40   19   20 am   BACKBONE|DICT|INTERRES
    41   19   89 1    
    42   20   21 2    
    43   20   22 1    
    44   22   23 1    
    45   22   24 1    
    46   22   90 1    
    47   23   91 1    
    48   23   92 1    
    49   23   93 1    
    50   24   25 am   BACKBONE|DICT|INTERRES
    51   24   94 1    
    52   25   26 2    
    53   25   27 1    
    54   27   28 1    
    55   27   29 1    
    56   27   95 1    
    57   28   96 1    
    58   28   97 1    
    59   28   98 1    
    60   29   30 am   BACKBONE|DICT|INTERRES
    61   29   99 1    
    62   30   31 2    
    63   30   32 1    
    64   32   33 1    
    65   32   34 1    
    66   32  100 1    
    67   33  101 1    
    68   33  102 1    
    69   33  103 1    
    70   34   35 am   BACKBONE|DICT|INTERRES
    71   34  104 1    
    72   35   36 2    
    73   37   38 2    
    74   37   39 am   BACKBONE|DICT|INTERRES
    75   39   40 1    
    76   39  105 1    
    77   40   41 1    
    78   40   42 1    
    79   40  106 1    
    80   41  107 1    
    81   41  108 1    
    82   41  109 1    
    83   42   43 2    
    84   42   44 am   BACKBONE|DICT|INTERRES
    85   44   45 1    
    86   44  110 1    
    87   45   46 1    
    88   45   47 1    
    89   45  111 1    
    90   46  112 1    
    91   46  113 1    
    92   46  114 1    
    93   47   48 2    
    94   47   49 am   BACKBONE|DICT|INTERRES
    95   49   50 1    
    96   49  115 1    
    97   50   51 1    
    98   50   52 1    
    99   50  116 1    
   100   51  117 1    
   101   51  118 1    
   102   51  119 1    
   103   52   53 2    
   104   52   54 am   BACKBONE|DICT|INTERRES
   105   54   55 1    
   106   54  120 1    
   107   55   56 1    
   108   55   57 1    
   109   55  121 1    
   110   56  122 1    
   111   56  123 1    
   112   56  124 1    
   113   57   58 2    
   114   57   59 am   BACKBONE|DICT|INTERRES
   115   59   60 1    
   116   59  125 1    
   117   60   61 1    
   118   60   62 1    
   119   60  126 1    
   120   61  127 1    
   121   61  128 1    
   122   61  129 1    
   123   62   63 2    
   124   62   64 am   BACKBONE|DICT|INTERRES
   125   64   65 1    
   126   64  130 1    
   127   65   66 1    
   128   65   69 1    
   129   65  131 1    
   130   66   67 am   BACKBONE|DICT|INTERRES
   131   66   68 2    
   132   67  132 1    
   133   67  133 1    
   134   69   70 1    
   135   69  134 1    
   136   69  135 1    
   137   70   71 1    
   138   71  136 1    
   139   71  137 1    
@<TRIPOS>SUBSTRUCTURE
     1 UNK         1 GROUP             0       ****    0 ROOT    
