@<TRIPOS>MOLECULE
3R136
137   139    1
SMALL
USER_CHARGES


@<TRIPOS>ATOM
      1 CA         26.5575   20.6652   -0.6379 C.3       0 UNK        -0.1979 
      2 C          27.7739   21.4200   -0.1211 C.2       0 UNK         0.4864 
      3 O          28.7575   21.5602   -0.8497 O.2       0 UNK        -0.5359 
      4 N          27.7102   21.8989    1.1287 N.am      1 UNK        -0.4318 
      5 CA         28.7474   22.7086    1.7755 C.3       1 UNK         0.0824 
      6 C6         28.9867   22.2463    3.2395 C.3       12 UNK        -0.0944 
      7 S7         30.5385   22.7842    4.0558 S.3       12 UNK        -0.2672 
      8 C8         31.8516   22.5978    2.7984 C.3       12 UNK         0.0333 
      9 C9         32.1255   23.8912    2.0351 C.ar      12 UNK        -0.0807 
     10 C10        32.6028   25.0141    2.7189 C.ar      12 UNK        -0.0894 
     11 C11        32.9165   26.1891    2.0300 C.ar      12 UNK        -0.0804 
     12 C12        32.7331   26.2428    0.6458 C.ar      12 UNK        -0.0824 
     13 C13        32.2341   25.1382   -0.0532 C.ar      12 UNK        -0.0762 
     14 C14        31.9498   23.9601    0.6474 C.ar      12 UNK        -0.0782 
     15 C15        32.0202   25.1936   -1.5668 C.3       12 UNK         0.0230 
     16 S16        31.2733   26.7561   -2.1575 S.3       12 UNK        -0.2608 
     17 C17        29.7300   26.8133   -1.1914 C.3       12 UNK        -0.0989 
     18 CA         28.4699   27.1241   -2.0419 C.3       5 UNK         0.0716 
     19 N          27.3046   26.4140   -1.5046 N.am      5 UNK        -0.4135 
     20 C          26.0935   26.3229   -2.0705 C.2       4 UNK         0.5031 
     21 O          25.8087   26.7892   -3.1737 O.2       4 UNK        -0.5229 
     22 CA         25.0124   25.6027   -1.2479 C.3       4 UNK         0.0329 
     23 CB         25.0512   24.0896   -1.5150 C.3       4 UNK        -0.2001 
     24 N          25.1787   25.8501    0.1877 N.am      4 UNK        -0.4303 
     25 C          24.7150   26.9319    0.8292 C.2       3 UNK         0.5044 
     26 O          24.0265   27.8014    0.2948 O.2       3 UNK        -0.5152 
     27 CA         25.0963   27.0852    2.3146 C.3       3 UNK         0.0319 
     28 CB         24.0858   26.3489    3.2084 C.3       3 UNK        -0.2001 
     29 N          26.4519   26.6238    2.6310 N.am      3 UNK        -0.4354 
     30 C          27.5752   27.1739    2.1481 C.2       2 UNK         0.4964 
     31 O          27.5910   28.1343    1.3794 O.2       2 UNK        -0.5047 
     32 CA         28.9066   26.5075    2.5365 C.3       2 UNK         0.0288 
     33 CB         29.3916   27.0243    3.8989 C.3       2 UNK        -0.2113 
     34 N          28.9048   25.0402    2.5521 N.am      2 UNK        -0.4145 
     35 C          28.4226   24.2111    1.6155 C.2       1 UNK         0.5006 
     36 O          27.7625   24.5933    0.6461 O.2       1 UNK        -0.5103 
     37 C          28.2473   28.6514   -2.1557 C.2       5 UNK         0.5055 
     38 O          28.8759   29.2898   -3.0010 O.2       5 UNK        -0.5220 
     39 N          27.3722   29.1961   -1.2946 N.am      6 UNK        -0.4450 
     40 CA         27.1048   30.6175   -1.0505 C.3       6 UNK         0.0367 
     41 CB         26.6020   31.3406   -2.3186 C.3       6 UNK        -0.1929 
     42 C          28.3140   31.2982   -0.3829 C.2       6 UNK         0.5070 
     43 O          28.7365   32.3771   -0.8029 O.2       6 UNK        -0.5237 
     44 N          28.8510   30.6328    0.6452 N.am      7 UNK        -0.4739 
     45 CA         29.9885   31.0647    1.4522 C.3       7 UNK         0.0276 
     46 CB         31.1322   30.0522    1.2506 C.3       7 UNK        -0.1927 
     47 C          29.5834   31.1229    2.9325 C.2       7 UNK         0.5013 
     48 O          28.5233   30.6169    3.3102 O.2       7 UNK        -0.5193 
     49 N          30.4598   31.7091    3.7572 N.am      8 UNK        -0.4253 
     50 CA         30.4063   31.5987    5.2170 C.3       8 UNK         0.0242 
     51 CB         31.3240   32.6674    5.8333 C.3       8 UNK        -0.2000 
     52 C          30.8570   30.1954    5.6539 C.2       8 UNK         0.4948 
     53 O          31.6643   29.5804    4.9559 O.2       8 UNK        -0.5275 
     54 N          30.3813   29.7286    6.8162 N.am      9 UNK        -0.4246 
     55 CA         30.6654   28.3906    7.3595 C.3       9 UNK         0.0261 
     56 CB         29.8640   28.1873    8.6555 C.3       9 UNK        -0.1959 
     57 C          32.1590   28.0876    7.5967 C.2       9 UNK         0.5033 
     58 O          32.5606   26.9273    7.5054 O.2       9 UNK        -0.5390 
     59 N          32.9500   29.1314    7.8773 N.am      10 UNK        -0.4215 
     60 CA         34.4069   29.0699    8.0250 C.3       10 UNK         0.0240 
     61 CB         34.8342   30.1167    9.0699 C.3       10 UNK        -0.1982 
     62 C          35.1649   29.2847    6.6976 C.2       10 UNK         0.4970 
     63 O          36.3963   29.2741    6.7152 O.2       10 UNK        -0.4916 
     64 N          34.4415   29.5121    5.5912 N.am      11 UNK        -0.4279 
     65 CA         34.9549   29.8570    4.2539 C.3       11 UNK         0.1003 
     66 C          35.6236   31.2624    4.1529 C.2       11 UNK         0.5709 
     67 N          35.4606   32.1483    5.1289 N.am      11 UNK        -0.7358 
     68 O          36.2714   31.5746    3.1564 O.2       11 UNK        -0.4999 
     69 C69        35.8190   28.7358    3.6016 C.3       12 UNK        -0.0954 
     70 S70        35.0573   27.0761    3.5564 S.3       12 UNK        -0.2268 
     71 C71        33.4452   27.4049    2.7761 C.3       12 UNK         0.0203 
     72 H72        25.7215   20.7116    0.0597 H         1 UNK         0.0888 
     73 H73        26.2284   21.0871   -1.5871 H         1 UNK         0.0888 
     74 H74        26.8082   19.6173   -0.8001 H         1 UNK         0.0888 
     75 H75        26.8608   21.7722    1.6604 H         1 UNK         0.3017 
     76 H76        29.6699   22.5504    1.2248 H         1 UNK         0.0873 
     77 H77        29.0022   21.1553    3.2668 H         1 UNK         0.0745 
     78 H78        28.1460   22.5354    3.8734 H         1 UNK         0.0745 
     79 H79        31.6183   21.7703    2.1271 H         1 UNK         0.0705 
     80 H80        32.7699   22.3088    3.3115 H         1 UNK         0.0705 
     81 H81        32.7477   24.9693    3.7900 H         1 UNK         0.1334 
     82 H82        32.9745   27.1501    0.1094 H         1 UNK         0.1417 
     83 H83        31.5983   23.0926    0.1052 H         1 UNK         0.1562 
     84 H84        31.3863   24.3675   -1.8937 H         1 UNK         0.0748 
     85 H85        32.9833   25.0577   -2.0603 H         1 UNK         0.0748 
     86 H86        29.8561   27.5312   -0.3791 H         1 UNK         0.0940 
     87 H87        29.6202   25.8435   -0.7066 H         1 UNK         0.0940 
     88 H88        28.6200   26.7408   -3.0534 H         1 UNK         0.0703 
     89 H89        27.4487   25.9165   -0.6298 H         1 UNK         0.3081 
     90 H90        24.0379   25.9789   -1.5669 H         1 UNK         0.0719 
     91 H91        24.2792   23.5660   -0.9511 H         1 UNK         0.0809 
     92 H92        24.8826   23.8766   -2.5715 H         1 UNK         0.0809 
     93 H93        26.0155   23.6582   -1.2465 H         1 UNK         0.0809 
     94 H94        25.7990   25.2208    0.6840 H         1 UNK         0.2990 
     95 H95        25.0487   28.1498    2.5543 H         1 UNK         0.0690 
     96 H96        23.0687   26.6909    3.0106 H         1 UNK         0.0788 
     97 H97        24.2856   26.5285    4.2650 H         1 UNK         0.0788 
     98 H98        24.1058   25.2714    3.0399 H         1 UNK         0.0788 
     99 H99        26.5343   25.8288    3.2475 H         1 UNK         0.2993 
    100 H100       29.6459   26.8053    1.7930 H         1 UNK         0.0949 
    101 H101       28.7355   26.7067    4.7100 H         1 UNK         0.0767 
    102 H102       30.3991   26.6734    4.1232 H         1 UNK         0.0767 
    103 H103       29.4243   28.1138    3.9126 H         1 UNK         0.0767 
    104 H104       29.4427   24.6097    3.2946 H         1 UNK         0.3013 
    105 H105       26.9921   28.5740   -0.5903 H         1 UNK         0.3121 
    106 H106       26.2970   30.6485   -0.3175 H         1 UNK         0.0774 
    107 H107       27.3810   31.4315   -3.0756 H         1 UNK         0.0815 
    108 H108       26.2678   32.3508   -2.0797 H         1 UNK         0.0815 
    109 H109       25.7576   30.8161   -2.7655 H         1 UNK         0.0815 
    110 H110       28.3871   29.7872    0.9731 H         1 UNK         0.2987 
    111 H111       30.3228   32.0589    1.1476 H         1 UNK         0.0949 
    112 H112       32.0308   30.3571    1.7879 H         1 UNK         0.0806 
    113 H113       30.8595   29.0601    1.6130 H         1 UNK         0.0806 
    114 H114       31.4006   29.9602    0.1978 H         1 UNK         0.0806 
    115 H115       31.3174   32.0733    3.3695 H         1 UNK         0.3010 
    116 H116       29.3804   31.7673    5.5519 H         1 UNK         0.0829 
    117 H117       31.0205   33.6704    5.5324 H         1 UNK         0.0813 
    118 H118       31.2896   32.6353    6.9230 H         1 UNK         0.0813 
    119 H119       32.3643   32.5296    5.5348 H         1 UNK         0.0813 
    120 H120       29.7360   30.3009    7.3425 H         1 UNK         0.3038 
    121 H121       30.3103   27.6642    6.6261 H         1 UNK         0.0769 
    122 H122       30.1444   28.9107    9.4221 H         1 UNK         0.0811 
    123 H123       30.0357   27.1921    9.0686 H         1 UNK         0.0811 
    124 H124       28.7922   28.2804    8.4793 H         1 UNK         0.0811 
    125 H125       32.5236   30.0442    7.9435 H         1 UNK         0.3204 
    126 H126       34.6916   28.0842    8.3993 H         1 UNK         0.0748 
    127 H127       35.9082   30.0715    9.2562 H         1 UNK         0.0771 
    128 H128       34.6023   31.1319    8.7455 H         1 UNK         0.0771 
    129 H129       34.3373   29.9478   10.0255 H         1 UNK         0.0771 
    130 H130       33.4278   29.4715    5.6424 H         1 UNK         0.2980 
    131 H131       34.0604   29.9680    3.6424 H         1 UNK         0.0545 
    132 H132       35.8890   33.0565    5.0442 H         1 UNK         0.3459 
    133 H133       34.9357   31.9118    5.9537 H         1 UNK         0.3459 
    134 H134       36.0609   28.9994    2.5706 H         1 UNK         0.0616 
    135 H135       36.7760   28.6484    4.1177 H         1 UNK         0.0616 
    136 H136       32.7280   27.6954    3.5432 H         1 UNK         0.0634 
    137 H137       33.5393   28.2513    2.0947 H         1 UNK         0.0634 
@<TRIPOS>BOND
     1    1    2 1    
     2    1   72 1    
     3    1   73 1    
     4    1   74 1    
     5    2    3 2    
     6    2    4 am   BACKBONE|DICT|INTERRES
     7    4    5 1    
     8    4   75 1    
     9    5    6 1    
    10    5   35 1    
    11    5   76 1    
    12    6    7 1    
    13    6   77 1    
    14    6   78 1    
    15    7    8 1    
    16    8    9 1    
    17    8   79 1    
    18    8   80 1    
    19    9   10 ar   
    20    9   14 ar   
    21   10   11 ar   
    22   10   81 1    
    23   11   12 ar   
    24   11   71 1    
    25   12   13 ar   
    26   12   82 1    
    27   13   14 ar   
    28   13   15 1    
    29   14   83 1    
    30   15   16 1    
    31   15   84 1    
    32   15   85 1    
    33   16   17 1    
    34   17   18 1    
    35   17   86 1    
    36   17   87 1    
    37   18   19 1    
    38   18   37 1    
    39   18   88 1    
    40   19   20 am   BACKBONE|DICT|INTERRES
    41   19   89 1    
    42   20   21 2    
    43   20   22 1    
    44   22   23 1    
    45   22   24 1    
    46   22   90 1    
    47   23   91 1    
    48   23   92 1    
    49   23   93 1    
    50   24   25 am   BACKBONE|DICT|INTERRES
    51   24   94 1    
    52   25   26 2    
    53   25   27 1    
    54   27   28 1    
    55   27   29 1    
    56   27   95 1    
    57   28   96 1    
    58   28   97 1    
    59   28   98 1    
    60   29   30 am   BACKBONE|DICT|INTERRES
    61   29   99 1    
    62   30   31 2    
    63   30   32 1    
    64   32   33 1    
    65   32   34 1    
    66   32  100 1    
    67   33  101 1    
    68   33  102 1    
    69   33  103 1    
    70   34   35 am   BACKBONE|DICT|INTERRES
    71   34  104 1    
    72   35   36 2    
    73   37   38 2    
    74   37   39 am   BACKBONE|DICT|INTERRES
    75   39   40 1    
    76   39  105 1    
    77   40   41 1    
    78   40   42 1    
    79   40  106 1    
    80   41  107 1    
    81   41  108 1    
    82   41  109 1    
    83   42   43 2    
    84   42   44 am   BACKBONE|DICT|INTERRES
    85   44   45 1    
    86   44  110 1    
    87   45   46 1    
    88   45   47 1    
    89   45  111 1    
    90   46  112 1    
    91   46  113 1    
    92   46  114 1    
    93   47   48 2    
    94   47   49 am   BACKBONE|DICT|INTERRES
    95   49   50 1    
    96   49  115 1    
    97   50   51 1    
    98   50   52 1    
    99   50  116 1    
   100   51  117 1    
   101   51  118 1    
   102   51  119 1    
   103   52   53 2    
   104   52   54 am   BACKBONE|DICT|INTERRES
   105   54   55 1    
   106   54  120 1    
   107   55   56 1    
   108   55   57 1    
   109   55  121 1    
   110   56  122 1    
   111   56  123 1    
   112   56  124 1    
   113   57   58 2    
   114   57   59 am   BACKBONE|DICT|INTERRES
   115   59   60 1    
   116   59  125 1    
   117   60   61 1    
   118   60   62 1    
   119   60  126 1    
   120   61  127 1    
   121   61  128 1    
   122   61  129 1    
   123   62   63 2    
   124   62   64 am   BACKBONE|DICT|INTERRES
   125   64   65 1    
   126   64  130 1    
   127   65   66 1    
   128   65   69 1    
   129   65  131 1    
   130   66   67 am   BACKBONE|DICT|INTERRES
   131   66   68 2    
   132   67  132 1    
   133   67  133 1    
   134   69   70 1    
   135   69  134 1    
   136   69  135 1    
   137   70   71 1    
   138   71  136 1    
   139   71  137 1    
@<TRIPOS>SUBSTRUCTURE
     1 UNK         1 GROUP             0       ****    0 ROOT    
