@<TRIPOS>MOLECULE
3R136
137   139    1
SMALL
USER_CHARGES


@<TRIPOS>ATOM
      1 CA         30.3064   18.7812   -2.3169 C.3       0 UNK        -0.1979 
      2 C          30.4262   20.2268   -1.8569 C.2       0 UNK         0.4864 
      3 O          31.4084   20.8941   -2.1863 O.2       0 UNK        -0.5359 
      4 N          29.4401   20.7114   -1.0915 N.am      1 UNK        -0.4318 
      5 CA         29.3630   22.0881   -0.5939 C.3       1 UNK         0.0824 
      6 C6         28.2676   22.2441    0.4896 C.3       12 UNK        -0.0944 
      7 S7         28.5644   21.2317    1.9775 S.3       12 UNK        -0.2672 
      8 C8         28.0984   22.4007    3.3061 C.3       12 UNK         0.0333 
      9 C9         29.2312   23.2870    3.8307 C.ar      12 UNK        -0.0807 
     10 C10        30.3338   23.6454    3.0449 C.ar      12 UNK        -0.0894 
     11 C11        31.3614   24.4367    3.5667 C.ar      12 UNK        -0.0804 
     12 C12        31.2744   24.8937    4.8849 C.ar      12 UNK        -0.0824 
     13 C13        30.1690   24.5692    5.6754 C.ar      12 UNK        -0.0762 
     14 C14        29.1568   23.7630    5.1442 C.ar      12 UNK        -0.0782 
     15 C15        30.0772   25.0771    7.1086 C.3       12 UNK         0.0230 
     16 S16        29.6056   26.8361    7.1893 S.3       12 UNK        -0.2608 
     17 C17        27.9438   26.8148    6.4368 C.3       12 UNK        -0.0989 
     18 CA         27.9700   27.3464    4.9739 C.3       5 UNK         0.0716 
     19 N          27.0617   26.6078    4.0932 N.am      5 UNK        -0.4135 
     20 C          25.7236   26.5795    4.1368 C.2       4 UNK         0.5031 
     21 O          25.0484   27.2034    4.9573 O.2       4 UNK        -0.5229 
     22 CA         25.0286   25.6957    3.0765 C.3       4 UNK         0.0329 
     23 CB         23.5072   25.5965    3.2972 C.3       4 UNK        -0.2001 
     24 N          25.2757   26.1343    1.6971 N.am      4 UNK        -0.4303 
     25 C          26.4402   26.0367    1.0449 C.2       3 UNK         0.5044 
     26 O          27.4729   25.5914    1.5556 O.2       3 UNK        -0.5152 
     27 CA         26.4717   26.5379   -0.4045 C.3       3 UNK         0.0319 
     28 CB         26.3333   28.0703   -0.4681 C.3       3 UNK        -0.2001 
     29 N          27.7428   26.1049   -0.9747 N.am      3 UNK        -0.4354 
     30 C          28.0883   26.0558   -2.2657 C.2       2 UNK         0.4964 
     31 O          27.3878   26.4779   -3.1859 O.2       2 UNK        -0.5047 
     32 CA         29.4405   25.3875   -2.5802 C.3       2 UNK         0.0288 
     33 CB         30.5897   26.4058   -2.4939 C.3       2 UNK        -0.2113 
     34 N          29.7231   24.2579   -1.6867 N.am      2 UNK        -0.4145 
     35 C          29.0873   23.0785   -1.7440 C.2       1 UNK         0.5006 
     36 O          28.2700   22.7820   -2.6202 O.2       1 UNK        -0.5103 
     37 C          27.7578   28.8729    4.8472 C.2       5 UNK         0.5055 
     38 O          27.4867   29.5535    5.8385 O.2       5 UNK        -0.5220 
     39 N          27.8561   29.3776    3.6094 N.am      6 UNK        -0.4450 
     40 CA         27.6363   30.7865    3.2721 C.3       6 UNK         0.0367 
     41 CB         26.1932   30.9911    2.7783 C.3       6 UNK        -0.1929 
     42 C          28.6564   31.2807    2.2410 C.2       6 UNK         0.5070 
     43 O          29.3040   32.3021    2.4770 O.2       6 UNK        -0.5237 
     44 N          28.8036   30.5403    1.1323 N.am      7 UNK        -0.4739 
     45 CA         29.7282   30.8338    0.0307 C.3       7 UNK         0.0276 
     46 CB         29.5922   29.7451   -1.0458 C.3       7 UNK        -0.1927 
     47 C          31.1917   30.9464    0.4890 C.2       7 UNK         0.5013 
     48 O          31.6064   30.2001    1.3777 O.2       7 UNK        -0.5193 
     49 N          31.9320   31.8847   -0.1199 N.am      8 UNK        -0.4253 
     50 CA         33.3270   32.2348    0.1852 C.3       8 UNK         0.0242 
     51 CB         34.2789   31.1051   -0.2644 C.3       8 UNK        -0.2000 
     52 C          33.5339   32.6467    1.6583 C.2       8 UNK         0.4948 
     53 O          34.5160   32.2348    2.2776 O.2       8 UNK        -0.5275 
     54 N          32.5810   33.4287    2.1931 N.am      9 UNK        -0.4246 
     55 CA         32.4824   33.8775    3.5892 C.3       9 UNK         0.0261 
     56 CB         33.6054   34.8837    3.9216 C.3       9 UNK        -0.1959 
     57 C          32.4200   32.6920    4.5729 C.2       9 UNK         0.5033 
     58 O          33.1960   32.6392    5.5291 O.2       9 UNK        -0.5390 
     59 N          31.5037   31.7552    4.2868 N.am      10 UNK        -0.4215 
     60 CA         31.3124   30.4619    4.9530 C.3       10 UNK         0.0240 
     61 CB         30.7941   30.6536    6.3938 C.3       10 UNK        -0.1982 
     62 C          32.5621   29.5650    4.8612 C.2       10 UNK         0.4970 
     63 O          33.0239   29.0408    5.8768 O.2       10 UNK        -0.4916 
     64 N          33.0741   29.4123    3.6328 N.am      11 UNK        -0.4279 
     65 CA         34.2550   28.6157    3.2682 C.3       11 UNK         0.1003 
     66 C          35.5599   29.0808    3.9798 C.2       11 UNK         0.5709 
     67 N          35.8546   30.3741    3.9790 N.am      11 UNK        -0.7358 
     68 O          36.3175   28.2797    4.5243 O.2       11 UNK        -0.4999 
     69 C69        33.9961   27.0871    3.3741 C.3       12 UNK        -0.0954 
     70 S70        32.6504   26.5292    2.2750 S.3       12 UNK        -0.2268 
     71 C71        32.5765   24.7650    2.7106 C.3       12 UNK         0.0203 
     72 H72        31.1607   18.2033   -1.9649 H         1 UNK         0.0888 
     73 H73        29.3993   18.3077   -1.9415 H         1 UNK         0.0888 
     74 H74        30.2876   18.7345   -3.4054 H         1 UNK         0.0888 
     75 H75        28.6552   20.1210   -0.8570 H         1 UNK         0.3017 
     76 H76        30.3314   22.3332   -0.1528 H         1 UNK         0.0873 
     77 H77        27.2852   21.9834    0.0904 H         1 UNK         0.0745 
     78 H78        28.1998   23.2877    0.7946 H         1 UNK         0.0745 
     79 H79        27.2759   23.0326    2.9696 H         1 UNK         0.0705 
     80 H80        27.7032   21.8045    4.1300 H         1 UNK         0.0705 
     81 H81        30.4090   23.2971    2.0269 H         1 UNK         0.1334 
     82 H82        32.0625   25.5084    5.2964 H         1 UNK         0.1417 
     83 H83        28.3062   23.5014    5.7589 H         1 UNK         0.1562 
     84 H84        31.0432   24.9500    7.5994 H         1 UNK         0.0748 
     85 H85        29.3647   24.4855    7.6858 H         1 UNK         0.0748 
     86 H86        27.2500   27.3729    7.0680 H         1 UNK         0.0940 
     87 H87        27.5713   25.7905    6.4644 H         1 UNK         0.0940 
     88 H88        28.9604   27.1487    4.5592 H         1 UNK         0.0703 
     89 H89        27.4985   26.0980    3.3273 H         1 UNK         0.3081 
     90 H90        25.4387   24.6900    3.1889 H         1 UNK         0.0719 
     91 H91        23.0179   26.5646    3.1821 H         1 UNK         0.0809 
     92 H92        23.0477   24.9015    2.5942 H         1 UNK         0.0809 
     93 H93        23.2801   25.2338    4.3008 H         1 UNK         0.0809 
     94 H94        24.4876   26.5413    1.2140 H         1 UNK         0.2990 
     95 H95        25.6570   26.0646   -0.9561 H         1 UNK         0.0690 
     96 H96        26.3960   28.4369   -1.4926 H         1 UNK         0.0788 
     97 H97        27.1103   28.5621    0.1130 H         1 UNK         0.0788 
     98 H98        25.3716   28.3982   -0.0719 H         1 UNK         0.0788 
     99 H99        28.3663   25.7156   -0.2772 H         1 UNK         0.2993 
    100 H100       29.3910   25.0147   -3.6059 H         1 UNK         0.0949 
    101 H101       30.3849   27.2819   -3.1110 H         1 UNK         0.0767 
    102 H102       30.7496   26.7527   -1.4726 H         1 UNK         0.0767 
    103 H103       31.5257   25.9735   -2.8484 H         1 UNK         0.0767 
    104 H104       30.3958   24.4199   -0.9512 H         1 UNK         0.3013 
    105 H105       28.1288   28.7605    2.8588 H         1 UNK         0.3121 
    106 H106       27.7783   31.4038    4.1623 H         1 UNK         0.0774 
    107 H107       25.4730   30.7375    3.5565 H         1 UNK         0.0815 
    108 H108       26.0182   32.0319    2.5025 H         1 UNK         0.0815 
    109 H109       25.9681   30.3779    1.9053 H         1 UNK         0.0815 
    110 H110       28.2249   29.7259    1.0124 H         1 UNK         0.2987 
    111 H111       29.4269   31.7910   -0.4005 H         1 UNK         0.0949 
    112 H112       30.3143   29.8911   -1.8506 H         1 UNK         0.0806 
    113 H113       29.7636   28.7517   -0.6309 H         1 UNK         0.0806 
    114 H114       28.6026   29.7561   -1.5018 H         1 UNK         0.0806 
    115 H115       31.4945   32.4427   -0.8407 H         1 UNK         0.3010 
    116 H116       33.5641   33.1189   -0.4086 H         1 UNK         0.0829 
    117 H117       34.1515   30.8787   -1.3228 H         1 UNK         0.0813 
    118 H118       35.3221   31.3881   -0.1184 H         1 UNK         0.0813 
    119 H119       34.1095   30.1857    0.2953 H         1 UNK         0.0813 
    120 H120       31.8006   33.6816    1.6024 H         1 UNK         0.3038 
    121 H121       31.5303   34.4029    3.6809 H         1 UNK         0.0769 
    122 H122       34.5913   34.4189    3.8851 H         1 UNK         0.0811 
    123 H123       33.4773   35.2926    4.9246 H         1 UNK         0.0811 
    124 H124       33.6046   35.7234    3.2269 H         1 UNK         0.0811 
    125 H125       30.9001   31.9241    3.4852 H         1 UNK         0.3204 
    126 H126       30.5366   29.9432    4.3909 H         1 UNK         0.0748 
    127 H127       30.5561   29.6936    6.8523 H         1 UNK         0.0771 
    128 H128       31.5307   31.1435    7.0310 H         1 UNK         0.0771 
    129 H129       29.8826   31.2512    6.4095 H         1 UNK         0.0771 
    130 H130       32.5927   29.8460    2.8467 H         1 UNK         0.2980 
    131 H131       34.4337   28.8271    2.2142 H         1 UNK         0.0545 
    132 H132       35.2689   31.0408    3.4794 H         1 UNK         0.3459 
    133 H133       36.6934   30.6900    4.4375 H         1 UNK         0.3459 
    134 H134       34.8933   26.5317    3.0953 H         1 UNK         0.0616 
    135 H135       33.7673   26.8073    4.4027 H         1 UNK         0.0616 
    136 H136       32.5599   24.1874    1.7852 H         1 UNK         0.0634 
    137 H137       33.4835   24.4627    3.2359 H         1 UNK         0.0634 
@<TRIPOS>BOND
     1    1    2 1    
     2    1   72 1    
     3    1   73 1    
     4    1   74 1    
     5    2    3 2    
     6    2    4 am   BACKBONE|DICT|INTERRES
     7    4    5 1    
     8    4   75 1    
     9    5    6 1    
    10    5   35 1    
    11    5   76 1    
    12    6    7 1    
    13    6   77 1    
    14    6   78 1    
    15    7    8 1    
    16    8    9 1    
    17    8   79 1    
    18    8   80 1    
    19    9   10 ar   
    20    9   14 ar   
    21   10   11 ar   
    22   10   81 1    
    23   11   12 ar   
    24   11   71 1    
    25   12   13 ar   
    26   12   82 1    
    27   13   14 ar   
    28   13   15 1    
    29   14   83 1    
    30   15   16 1    
    31   15   84 1    
    32   15   85 1    
    33   16   17 1    
    34   17   18 1    
    35   17   86 1    
    36   17   87 1    
    37   18   19 1    
    38   18   37 1    
    39   18   88 1    
    40   19   20 am   BACKBONE|DICT|INTERRES
    41   19   89 1    
    42   20   21 2    
    43   20   22 1    
    44   22   23 1    
    45   22   24 1    
    46   22   90 1    
    47   23   91 1    
    48   23   92 1    
    49   23   93 1    
    50   24   25 am   BACKBONE|DICT|INTERRES
    51   24   94 1    
    52   25   26 2    
    53   25   27 1    
    54   27   28 1    
    55   27   29 1    
    56   27   95 1    
    57   28   96 1    
    58   28   97 1    
    59   28   98 1    
    60   29   30 am   BACKBONE|DICT|INTERRES
    61   29   99 1    
    62   30   31 2    
    63   30   32 1    
    64   32   33 1    
    65   32   34 1    
    66   32  100 1    
    67   33  101 1    
    68   33  102 1    
    69   33  103 1    
    70   34   35 am   BACKBONE|DICT|INTERRES
    71   34  104 1    
    72   35   36 2    
    73   37   38 2    
    74   37   39 am   BACKBONE|DICT|INTERRES
    75   39   40 1    
    76   39  105 1    
    77   40   41 1    
    78   40   42 1    
    79   40  106 1    
    80   41  107 1    
    81   41  108 1    
    82   41  109 1    
    83   42   43 2    
    84   42   44 am   BACKBONE|DICT|INTERRES
    85   44   45 1    
    86   44  110 1    
    87   45   46 1    
    88   45   47 1    
    89   45  111 1    
    90   46  112 1    
    91   46  113 1    
    92   46  114 1    
    93   47   48 2    
    94   47   49 am   BACKBONE|DICT|INTERRES
    95   49   50 1    
    96   49  115 1    
    97   50   51 1    
    98   50   52 1    
    99   50  116 1    
   100   51  117 1    
   101   51  118 1    
   102   51  119 1    
   103   52   53 2    
   104   52   54 am   BACKBONE|DICT|INTERRES
   105   54   55 1    
   106   54  120 1    
   107   55   56 1    
   108   55   57 1    
   109   55  121 1    
   110   56  122 1    
   111   56  123 1    
   112   56  124 1    
   113   57   58 2    
   114   57   59 am   BACKBONE|DICT|INTERRES
   115   59   60 1    
   116   59  125 1    
   117   60   61 1    
   118   60   62 1    
   119   60  126 1    
   120   61  127 1    
   121   61  128 1    
   122   61  129 1    
   123   62   63 2    
   124   62   64 am   BACKBONE|DICT|INTERRES
   125   64   65 1    
   126   64  130 1    
   127   65   66 1    
   128   65   69 1    
   129   65  131 1    
   130   66   67 am   BACKBONE|DICT|INTERRES
   131   66   68 2    
   132   67  132 1    
   133   67  133 1    
   134   69   70 1    
   135   69  134 1    
   136   69  135 1    
   137   70   71 1    
   138   71  136 1    
   139   71  137 1    
@<TRIPOS>SUBSTRUCTURE
     1 UNK         1 GROUP             0       ****    0 ROOT    
