@<TRIPOS>MOLECULE
3R136
137   139    1
SMALL
USER_CHARGES


@<TRIPOS>ATOM
      1 CA         24.7212   25.7728    2.3865 C.3       0 UNK        -0.1979 
      2 C          26.0571   25.0492    2.3108 C.2       0 UNK         0.4864 
      3 O          26.9685   25.5236    1.6292 O.2       0 UNK        -0.5359 
      4 N          26.1778   23.9136    3.0137 N.am      1 UNK        -0.4318 
      5 CA         27.3715   23.0656    3.0970 C.3       1 UNK         0.0824 
      6 C6         28.5247   23.7557    3.8783 C.3       12 UNK        -0.0944 
      7 S7         29.7812   22.5748    4.4810 S.3       12 UNK        -0.2672 
      8 C8         31.1536   23.6794    4.9473 C.3       12 UNK         0.0333 
      9 C9         31.9856   24.0857    3.7395 C.ar      12 UNK        -0.0807 
     10 C10        33.1233   23.3588    3.3820 C.ar      12 UNK        -0.0894 
     11 C11        33.8863   23.7394    2.2738 C.ar      12 UNK        -0.0804 
     12 C12        33.4838   24.8310    1.4985 C.ar      12 UNK        -0.0824 
     13 C13        32.3466   25.5667    1.8435 C.ar      12 UNK        -0.0762 
     14 C14        31.6244   25.2007    2.9839 C.ar      12 UNK        -0.0782 
     15 C15        31.9277   26.7610    0.9897 C.3       12 UNK         0.0230 
     16 S16        30.1390   26.7940    0.6290 S.3       12 UNK        -0.2608 
     17 C17        29.4708   27.6937    2.0755 C.3       12 UNK        -0.0989 
     18 CA         28.4828   28.8033    1.6582 C.3       5 UNK         0.0716 
     19 N          27.3593   28.2505    0.8972 N.am      5 UNK        -0.4135 
     20 C          26.4824   28.9484    0.1654 C.2       4 UNK         0.5031 
     21 O          26.4188   30.1791    0.1699 O.2       4 UNK        -0.5229 
     22 CA         25.5586   28.1155   -0.7367 C.3       4 UNK         0.0329 
     23 CB         24.7729   28.9707   -1.7480 C.3       4 UNK        -0.2001 
     24 N          26.3803   27.1385   -1.4508 N.am      4 UNK        -0.4303 
     25 C          26.1499   25.8243   -1.5392 C.2       3 UNK         0.5044 
     26 O          25.1325   25.2708   -1.1214 O.2       3 UNK        -0.5152 
     27 CA         27.2517   24.9762   -2.1880 C.3       3 UNK         0.0319 
     28 CB         28.2551   25.7859   -3.0428 C.3       3 UNK        -0.2001 
     29 N          27.9591   24.2433   -1.1389 N.am      3 UNK        -0.4354 
     30 C          28.6627   23.1203   -1.3394 C.2       2 UNK         0.4964 
     31 O          28.7519   22.5618   -2.4342 O.2       2 UNK        -0.5047 
     32 CA         29.4169   22.5101   -0.1426 C.3       2 UNK         0.0288 
     33 CB         30.9133   22.8535   -0.2236 C.3       2 UNK        -0.2113 
     34 N          28.9085   22.9272    1.1641 N.am      2 UNK        -0.4145 
     35 C          27.7484   22.5222    1.6988 C.2       1 UNK         0.5006 
     36 O          26.9735   21.7467    1.1341 O.2       1 UNK        -0.5103 
     37 C          28.0531   29.6422    2.8773 C.2       5 UNK         0.5055 
     38 O          28.8740   30.3943    3.3991 O.2       5 UNK        -0.5220 
     39 N          26.7792   29.5516    3.2868 N.am      6 UNK        -0.4450 
     40 CA         26.1606   30.4004    4.3104 C.3       6 UNK         0.0367 
     41 CB         24.7336   29.8987    4.5839 C.3       6 UNK        -0.1929 
     42 C          26.1461   31.8991    3.9438 C.2       6 UNK         0.5070 
     43 O          26.0979   32.7371    4.8439 O.2       6 UNK        -0.5237 
     44 N          26.2123   32.2127    2.6414 N.am      7 UNK        -0.4739 
     45 CA         26.3494   33.5723    2.1137 C.3       7 UNK         0.0276 
     46 CB         25.7292   33.6128    0.7063 C.3       7 UNK        -0.1927 
     47 C          27.8100   34.0702    2.0773 C.2       7 UNK         0.5013 
     48 O          28.0302   35.2244    1.7062 O.2       7 UNK        -0.5193 
     49 N          28.7776   33.2129    2.4287 N.am      8 UNK        -0.4253 
     50 CA         30.2115   33.4895    2.3998 C.3       8 UNK         0.0242 
     51 CB         30.8116   32.9084    1.1007 C.3       8 UNK        -0.2000 
     52 C          30.8394   32.9491    3.6952 C.2       8 UNK         0.4948 
     53 O          30.4459   33.3878    4.7779 O.2       8 UNK        -0.5275 
     54 N          31.7913   32.0183    3.5754 N.am      9 UNK        -0.4246 
     55 CA         32.4413   31.3035    4.6682 C.3       9 UNK         0.0261 
     56 CB         33.6423   32.1164    5.1854 C.3       9 UNK        -0.1959 
     57 C          32.8810   29.9314    4.1426 C.2       9 UNK         0.5033 
     58 O          32.9887   29.7531    2.9254 O.2       9 UNK        -0.5390 
     59 N          33.1308   28.9927    5.0637 N.am      10 UNK        -0.4215 
     60 CA         33.6114   27.6419    4.7616 C.3       10 UNK         0.0240 
     61 CB         33.3596   26.7340    5.9774 C.3       10 UNK        -0.1982 
     62 C          35.0961   27.6177    4.3580 C.2       10 UNK         0.4970 
     63 O          35.8300   28.5642    4.6556 O.2       10 UNK        -0.4916 
     64 N          35.5114   26.5234    3.7057 N.am      11 UNK        -0.4279 
     65 CA         36.9026   26.2703    3.3020 C.3       11 UNK         0.1003 
     66 C          37.8927   26.1282    4.4961 C.2       11 UNK         0.5709 
     67 N          39.1771   26.3660    4.2640 N.am      11 UNK        -0.7358 
     68 O          37.5183   25.7814    5.6155 O.2       11 UNK        -0.4999 
     69 C69        37.0087   25.0882    2.2980 C.3       12 UNK        -0.0954 
     70 S70        36.5439   23.4538    2.9764 S.3       12 UNK        -0.2268 
     71 C71        35.1452   22.9669    1.9182 C.3       12 UNK         0.0203 
     72 H72        24.0679   25.3417    3.1448 H         1 UNK         0.0888 
     73 H73        24.8738   26.8228    2.6317 H         1 UNK         0.0888 
     74 H74        24.2099   25.7144    1.4264 H         1 UNK         0.0888 
     75 H75        25.3749   23.5671    3.5201 H         1 UNK         0.3017 
     76 H76        27.0624   22.1941    3.6768 H         1 UNK         0.0873 
     77 H77        28.9770   24.5439    3.2816 H         1 UNK         0.0745 
     78 H78        28.1185   24.2560    4.7589 H         1 UNK         0.0745 
     79 H79        30.7625   24.5607    5.4582 H         1 UNK         0.0705 
     80 H80        31.7849   23.1648    5.6733 H         1 UNK         0.0705 
     81 H81        33.4232   22.5032    3.9719 H         1 UNK         0.1334 
     82 H82        34.0629   25.1130    0.6297 H         1 UNK         0.1417 
     83 H83        30.7751   25.7843    3.2935 H         1 UNK         0.1562 
     84 H84        32.4503   26.7330    0.0325 H         1 UNK         0.0748 
     85 H85        32.2370   27.6873    1.4727 H         1 UNK         0.0748 
     86 H86        30.2959   28.1188    2.6513 H         1 UNK         0.0940 
     87 H87        28.9695   26.9810    2.7321 H         1 UNK         0.0940 
     88 H88        29.0129   29.4890    0.9932 H         1 UNK         0.0703 
     89 H89        27.3016   27.2337    0.8960 H         1 UNK         0.3081 
     90 H90        24.8467   27.6094   -0.0824 H         1 UNK         0.0719 
     91 H91        25.4388   29.5272   -2.4086 H         1 UNK         0.0809 
     92 H92        24.1248   28.3519   -2.3687 H         1 UNK         0.0809 
     93 H93        24.1372   29.6952   -1.2373 H         1 UNK         0.0809 
     94 H94        27.2589   27.4873   -1.8093 H         1 UNK         0.2990 
     95 H95        26.7443   24.2617   -2.8397 H         1 UNK         0.0690 
     96 H96        28.9219   25.1238   -3.5954 H         1 UNK         0.0788 
     97 H97        28.8807   26.4391   -2.4329 H         1 UNK         0.0788 
     98 H98        27.7412   26.4013   -3.7827 H         1 UNK         0.0788 
     99 H99        27.8775   24.6190   -0.1993 H         1 UNK         0.2993 
    100 H100       29.3123   21.4252   -0.2128 H         1 UNK         0.0949 
    101 H101       31.4712   22.4134    0.6036 H         1 UNK         0.0767 
    102 H102       31.3515   22.4758   -1.1482 H         1 UNK         0.0767 
    103 H103       31.0779   23.9311   -0.2037 H         1 UNK         0.0767 
    104 H104       29.4869   23.5649    1.6919 H         1 UNK         0.3013 
    105 H105       26.1716   28.9127    2.7974 H         1 UNK         0.3121 
    106 H106       26.7455   30.2956    5.2267 H         1 UNK         0.0774 
    107 H107       24.1051   29.9631    3.6947 H         1 UNK         0.0815 
    108 H108       24.2550   30.4928    5.3638 H         1 UNK         0.0815 
    109 H109       24.7336   28.8628    4.9236 H         1 UNK         0.0815 
    110 H110       26.2460   31.4639    1.9579 H         1 UNK         0.2987 
    111 H111       25.7905   34.2613    2.7510 H         1 UNK         0.0949 
    112 H112       26.2641   32.9636    0.0118 H         1 UNK         0.0806 
    113 H113       24.6856   33.2980    0.7226 H         1 UNK         0.0806 
    114 H114       25.7547   34.6225    0.2941 H         1 UNK         0.0806 
    115 H115       28.5237   32.2999    2.7931 H         1 UNK         0.3010 
    116 H116       30.3862   34.5674    2.4059 H         1 UNK         0.0829 
    117 H117       30.3509   33.3627    0.2232 H         1 UNK         0.0813 
    118 H118       31.8822   33.1066    1.0330 H         1 UNK         0.0813 
    119 H119       30.6608   31.8303    1.0274 H         1 UNK         0.0813 
    120 H120       32.0219   31.6497    2.6603 H         1 UNK         0.3038 
    121 H121       31.7218   31.1479    5.4753 H         1 UNK         0.0769 
    122 H122       34.3803   32.2846    4.4000 H         1 UNK         0.0811 
    123 H123       34.1473   31.5986    6.0018 H         1 UNK         0.0811 
    124 H124       33.3295   33.0893    5.5648 H         1 UNK         0.0811 
    125 H125       33.0625   29.2387    6.0406 H         1 UNK         0.3204 
    126 H126       33.0322   27.2695    3.9190 H         1 UNK         0.0748 
    127 H127       33.9154   27.0702    6.8537 H         1 UNK         0.0771 
    128 H128       32.3017   26.7055    6.2390 H         1 UNK         0.0771 
    129 H129       33.6666   25.7072    5.7731 H         1 UNK         0.0771 
    130 H130       34.8616   25.7696    3.5323 H         1 UNK         0.2980 
    131 H131       37.2155   27.1653    2.7604 H         1 UNK         0.0545 
    132 H132       39.8364   26.2688    5.0204 H         1 UNK         0.3459 
    133 H133       39.5012   26.6409    3.3499 H         1 UNK         0.3459 
    134 H134       36.4013   25.3037    1.4187 H         1 UNK         0.0616 
    135 H135       38.0305   25.0095    1.9232 H         1 UNK         0.0616 
    136 H136       35.4095   23.1063    0.8688 H         1 UNK         0.0634 
    137 H137       34.9631   21.8989    2.0469 H         1 UNK         0.0634 
@<TRIPOS>BOND
     1    1    2 1    
     2    1   72 1    
     3    1   73 1    
     4    1   74 1    
     5    2    3 2    
     6    2    4 am   BACKBONE|DICT|INTERRES
     7    4    5 1    
     8    4   75 1    
     9    5    6 1    
    10    5   35 1    
    11    5   76 1    
    12    6    7 1    
    13    6   77 1    
    14    6   78 1    
    15    7    8 1    
    16    8    9 1    
    17    8   79 1    
    18    8   80 1    
    19    9   10 ar   
    20    9   14 ar   
    21   10   11 ar   
    22   10   81 1    
    23   11   12 ar   
    24   11   71 1    
    25   12   13 ar   
    26   12   82 1    
    27   13   14 ar   
    28   13   15 1    
    29   14   83 1    
    30   15   16 1    
    31   15   84 1    
    32   15   85 1    
    33   16   17 1    
    34   17   18 1    
    35   17   86 1    
    36   17   87 1    
    37   18   19 1    
    38   18   37 1    
    39   18   88 1    
    40   19   20 am   BACKBONE|DICT|INTERRES
    41   19   89 1    
    42   20   21 2    
    43   20   22 1    
    44   22   23 1    
    45   22   24 1    
    46   22   90 1    
    47   23   91 1    
    48   23   92 1    
    49   23   93 1    
    50   24   25 am   BACKBONE|DICT|INTERRES
    51   24   94 1    
    52   25   26 2    
    53   25   27 1    
    54   27   28 1    
    55   27   29 1    
    56   27   95 1    
    57   28   96 1    
    58   28   97 1    
    59   28   98 1    
    60   29   30 am   BACKBONE|DICT|INTERRES
    61   29   99 1    
    62   30   31 2    
    63   30   32 1    
    64   32   33 1    
    65   32   34 1    
    66   32  100 1    
    67   33  101 1    
    68   33  102 1    
    69   33  103 1    
    70   34   35 am   BACKBONE|DICT|INTERRES
    71   34  104 1    
    72   35   36 2    
    73   37   38 2    
    74   37   39 am   BACKBONE|DICT|INTERRES
    75   39   40 1    
    76   39  105 1    
    77   40   41 1    
    78   40   42 1    
    79   40  106 1    
    80   41  107 1    
    81   41  108 1    
    82   41  109 1    
    83   42   43 2    
    84   42   44 am   BACKBONE|DICT|INTERRES
    85   44   45 1    
    86   44  110 1    
    87   45   46 1    
    88   45   47 1    
    89   45  111 1    
    90   46  112 1    
    91   46  113 1    
    92   46  114 1    
    93   47   48 2    
    94   47   49 am   BACKBONE|DICT|INTERRES
    95   49   50 1    
    96   49  115 1    
    97   50   51 1    
    98   50   52 1    
    99   50  116 1    
   100   51  117 1    
   101   51  118 1    
   102   51  119 1    
   103   52   53 2    
   104   52   54 am   BACKBONE|DICT|INTERRES
   105   54   55 1    
   106   54  120 1    
   107   55   56 1    
   108   55   57 1    
   109   55  121 1    
   110   56  122 1    
   111   56  123 1    
   112   56  124 1    
   113   57   58 2    
   114   57   59 am   BACKBONE|DICT|INTERRES
   115   59   60 1    
   116   59  125 1    
   117   60   61 1    
   118   60   62 1    
   119   60  126 1    
   120   61  127 1    
   121   61  128 1    
   122   61  129 1    
   123   62   63 2    
   124   62   64 am   BACKBONE|DICT|INTERRES
   125   64   65 1    
   126   64  130 1    
   127   65   66 1    
   128   65   69 1    
   129   65  131 1    
   130   66   67 am   BACKBONE|DICT|INTERRES
   131   66   68 2    
   132   67  132 1    
   133   67  133 1    
   134   69   70 1    
   135   69  134 1    
   136   69  135 1    
   137   70   71 1    
   138   71  136 1    
   139   71  137 1    
@<TRIPOS>SUBSTRUCTURE
     1 UNK         1 GROUP             0       ****    0 ROOT    
