@<TRIPOS>MOLECULE
3R136
137   139    1
SMALL
USER_CHARGES


@<TRIPOS>ATOM
      1 CA         24.7159   20.9604    1.7992 C.3       0 UNK        -0.1979 
      2 C          25.7924   21.8235    1.1591 C.2       0 UNK         0.4864 
      3 O          25.8689   21.9004   -0.0687 O.2       0 UNK        -0.5359 
      4 N          26.6199   22.4871    1.9772 N.am      1 UNK        -0.4318 
      5 CA         27.7359   23.3496    1.5654 C.3       1 UNK         0.0824 
      6 C6         28.7756   23.5107    2.7055 C.3       12 UNK        -0.0944 
      7 S7         29.5252   21.9230    3.1976 S.3       12 UNK        -0.2672 
      8 C8         31.1704   22.0327    2.4056 C.3       12 UNK         0.0333 
      9 C9         32.1304   23.0698    2.9966 C.ar      12 UNK        -0.0807 
     10 C10        33.2458   23.4531    2.2424 C.ar      12 UNK        -0.0894 
     11 C11        34.1657   24.3843    2.7372 C.ar      12 UNK        -0.0804 
     12 C12        33.9669   24.9308    4.0077 C.ar      12 UNK        -0.0824 
     13 C13        32.8668   24.5509    4.7806 C.ar      12 UNK        -0.0762 
     14 C14        31.9550   23.6217    4.2732 C.ar      12 UNK        -0.0782 
     15 C15        32.6940   25.1152    6.1820 C.3       12 UNK         0.0230 
     16 S16        32.0221   26.8034    6.1546 S.3       12 UNK        -0.2608 
     17 C17        30.2336   26.5132    5.9531 C.3       12 UNK        -0.0989 
     18 CA         29.6016   27.5014    4.9408 C.3       5 UNK         0.0716 
     19 N          30.0775   27.2475    3.5732 N.am      5 UNK        -0.4135 
     20 C          29.7415   27.9096    2.4571 C.2       4 UNK         0.5031 
     21 O          28.8105   28.7116    2.3865 O.2       4 UNK        -0.5229 
     22 CA         30.5791   27.6453    1.1989 C.3       4 UNK         0.0329 
     23 CB         31.6225   26.5207    1.3381 C.3       4 UNK        -0.2001 
     24 N          29.6908   27.3415    0.0833 N.am      4 UNK        -0.4303 
     25 C          29.9157   27.6731   -1.1950 C.2       3 UNK         0.5044 
     26 O          30.8783   28.3490   -1.5610 O.2       3 UNK        -0.5152 
     27 CA         28.9412   27.1380   -2.2648 C.3       3 UNK         0.0319 
     28 CB         29.6874   26.2635   -3.2880 C.3       3 UNK        -0.2001 
     29 N          27.8422   26.3522   -1.7002 N.am      3 UNK        -0.4354 
     30 C          26.6918   26.8626   -1.2440 C.2       2 UNK         0.4964 
     31 O          26.3907   28.0524   -1.3276 O.2       2 UNK        -0.5047 
     32 CA         25.7175   25.8843   -0.5643 C.3       2 UNK         0.0288 
     33 CB         24.6391   25.4204   -1.5562 C.3       2 UNK        -0.2113 
     34 N          26.3584   24.7050    0.0334 N.am      2 UNK        -0.4145 
     35 C          27.2407   24.7176    1.0422 C.2       1 UNK         0.5006 
     36 O          27.6492   25.7578    1.5618 O.2       1 UNK        -0.5103 
     37 C          28.0731   27.5832    5.1575 C.2       5 UNK         0.5055 
     38 O          27.6668   28.1490    6.1748 O.2       5 UNK        -0.5220 
     39 N          27.2438   27.0409    4.2527 N.am      6 UNK        -0.4450 
     40 CA         25.7849   27.1496    4.3583 C.3       6 UNK         0.0367 
     41 CB         25.1123   25.9936    3.6017 C.3       6 UNK        -0.1929 
     42 C          25.2366   28.5075    3.8763 C.2       6 UNK         0.5070 
     43 O          24.0806   28.8064    4.1800 O.2       6 UNK        -0.5237 
     44 N          26.0316   29.2964    3.1358 N.am      7 UNK        -0.4739 
     45 CA         25.5967   30.5748    2.5578 C.3       7 UNK         0.0276 
     46 CB         25.0976   30.3381    1.1222 C.3       7 UNK        -0.1927 
     47 C          26.6677   31.6781    2.5753 C.2       7 UNK         0.5013 
     48 O          26.2979   32.8532    2.6044 O.2       7 UNK        -0.5193 
     49 N          27.9532   31.3126    2.5355 N.am      8 UNK        -0.4253 
     50 CA         29.0964   32.2219    2.4659 C.3       8 UNK         0.0242 
     51 CB         29.8080   31.9954    1.1192 C.3       8 UNK        -0.2000 
     52 C          30.0599   31.9553    3.6295 C.2       8 UNK         0.4948 
     53 O          29.9431   30.9402    4.3204 O.2       8 UNK        -0.5275 
     54 N          31.0347   32.8554    3.8091 N.am      9 UNK        -0.4246 
     55 CA         32.1128   32.7480    4.7973 C.3       9 UNK         0.0261 
     56 CB         32.7030   34.1495    5.0449 C.3       9 UNK        -0.1959 
     57 C          33.1809   31.7189    4.3693 C.2       9 UNK         0.5033 
     58 O          34.3320   32.0900    4.1294 O.2       9 UNK        -0.5390 
     59 N          32.7599   30.4502    4.2731 N.am      10 UNK        -0.4215 
     60 CA         33.5130   29.2771    3.8136 C.3       10 UNK         0.0240 
     61 CB         34.7182   28.9970    4.7405 C.3       10 UNK        -0.1982 
     62 C          33.8982   29.3531    2.3220 C.2       10 UNK         0.4970 
     63 O          33.3638   30.1839    1.5839 O.2       10 UNK        -0.4916 
     64 N          34.7744   28.4364    1.8937 N.am      11 UNK        -0.4279 
     65 CA         35.3138   28.3615    0.5292 C.3       11 UNK         0.1003 
     66 C          36.2385   29.5655    0.2020 C.2       11 UNK         0.5709 
     67 N          36.1830   30.0789   -1.0194 N.am      11 UNK        -0.7358 
     68 O          37.0357   30.0048    1.0291 O.2       11 UNK        -0.4999 
     69 C69        36.0567   27.0213    0.2849 C.3       12 UNK        -0.0954 
     70 S70        34.9351   25.5842    0.3522 S.3       12 UNK        -0.2268 
     71 C71        35.3915   24.7738    1.9189 C.3       12 UNK         0.0203 
     72 H72        23.7283   21.3058    1.4948 H         1 UNK         0.0888 
     73 H73        24.8284   19.9244    1.4809 H         1 UNK         0.0888 
     74 H74        24.7649   20.9880    2.8876 H         1 UNK         0.0888 
     75 H75        26.5058   22.3843    2.9754 H         1 UNK         0.3017 
     76 H76        28.2434   22.8696    0.7257 H         1 UNK         0.0873 
     77 H77        28.3128   23.9576    3.5875 H         1 UNK         0.0745 
     78 H78        29.5714   24.1933    2.4091 H         1 UNK         0.0745 
     79 H79        31.0260   22.2309    1.3422 H         1 UNK         0.0705 
     80 H80        31.6451   21.0531    2.4741 H         1 UNK         0.0705 
     81 H81        33.4035   23.0243    1.2619 H         1 UNK         0.1334 
     82 H82        34.6782   25.6383    4.4101 H         1 UNK         0.1417 
     83 H83        31.1190   23.3208    4.8881 H         1 UNK         0.1562 
     84 H84        33.6636   25.1357    6.6819 H         1 UNK         0.0748 
     85 H85        32.0561   24.4724    6.7908 H         1 UNK         0.0748 
     86 H86        29.7898   26.6231    6.9452 H         1 UNK         0.0940 
     87 H87        30.0416   25.4825    5.6509 H         1 UNK         0.0940 
     88 H88        29.9659   28.4983    5.1929 H         1 UNK         0.0703 
     89 H89        30.8319   26.5803    3.5086 H         1 UNK         0.3081 
     90 H90        31.1074   28.5786    0.9947 H         1 UNK         0.0719 
     91 H91        32.1972   26.4256    0.4180 H         1 UNK         0.0809 
     92 H92        32.3375   26.7185    2.1358 H         1 UNK         0.0809 
     93 H93        31.1619   25.5529    1.5285 H         1 UNK         0.0809 
     94 H94        28.8372   26.8537    0.3349 H         1 UNK         0.2990 
     95 H95        28.5333   28.0029   -2.7923 H         1 UNK         0.0690 
     96 H96        30.4829   26.8258   -3.7791 H         1 UNK         0.0788 
     97 H97        29.0167   25.9079   -4.0705 H         1 UNK         0.0788 
     98 H98        30.1472   25.3937   -2.8169 H         1 UNK         0.0788 
     99 H99        27.9969   25.3593   -1.6029 H         1 UNK         0.2993 
    100 H100       25.2257   26.4391    0.2364 H         1 UNK         0.0949 
    101 H101       25.0664   24.8344   -2.3710 H         1 UNK         0.0767 
    102 H102       23.8837   24.8084   -1.0627 H         1 UNK         0.0767 
    103 H103       24.1236   26.2729   -2.0013 H         1 UNK         0.0767 
    104 H104       26.0626   23.7924   -0.3056 H         1 UNK         0.3013 
    105 H105       27.6162   26.6380    3.3977 H         1 UNK         0.3121 
    106 H106       25.5055   27.0458    5.4092 H         1 UNK         0.0774 
    107 H107       25.1863   26.1242    2.5245 H         1 UNK         0.0815 
    108 H108       24.0496   25.9438    3.8419 H         1 UNK         0.0815 
    109 H109       25.5498   25.0301    3.8628 H         1 UNK         0.0815 
    110 H110       26.9766   28.9856    2.9256 H         1 UNK         0.2987 
    111 H111       24.7632   30.9703    3.1427 H         1 UNK         0.0949 
    112 H112       25.8935   29.9523    0.4846 H         1 UNK         0.0806 
    113 H113       24.2729   29.6256    1.0979 H         1 UNK         0.0806 
    114 H114       24.7391   31.2650    0.6727 H         1 UNK         0.0806 
    115 H115       28.2055   30.3247    2.5559 H         1 UNK         0.3010 
    116 H116       28.7702   33.2621    2.5302 H         1 UNK         0.0829 
    117 H117       29.1320   32.1684    0.2816 H         1 UNK         0.0813 
    118 H118       30.6544   32.6717    0.9943 H         1 UNK         0.0813 
    119 H119       30.1902   30.9771    1.0323 H         1 UNK         0.0813 
    120 H120       31.0865   33.6432    3.1790 H         1 UNK         0.3038 
    121 H121       31.6878   32.3989    5.7412 H         1 UNK         0.0769 
    122 H122       33.1372   34.5724    4.1381 H         1 UNK         0.0811 
    123 H123       33.4918   34.1129    5.7976 H         1 UNK         0.0811 
    124 H124       31.9434   34.8418    5.4086 H         1 UNK         0.0811 
    125 H125       31.7637   30.3070    4.4224 H         1 UNK         0.3204 
    126 H126       32.8240   28.4379    3.8982 H         1 UNK         0.0748 
    127 H127       35.1455   28.0111    4.5605 H         1 UNK         0.0771 
    128 H128       35.5151   29.7289    4.6029 H         1 UNK         0.0771 
    129 H129       34.4210   29.0220    5.7891 H         1 UNK         0.0771 
    130 H130       35.1780   27.7971    2.5593 H         1 UNK         0.2980 
    131 H131       34.4624   28.4025   -0.1540 H         1 UNK         0.0545 
    132 H132       36.7886   30.8496   -1.2545 H         1 UNK         0.3459 
    133 H133       35.5416   29.7178   -1.7084 H         1 UNK         0.3459 
    134 H134       36.5075   27.0174   -0.7094 H         1 UNK         0.0616 
    135 H135       36.8833   26.8969    0.9863 H         1 UNK         0.0616 
    136 H136       36.0436   25.4234    2.5035 H         1 UNK         0.0634 
    137 H137       35.9739   23.8791    1.6953 H         1 UNK         0.0634 
@<TRIPOS>BOND
     1    1    2 1    
     2    1   72 1    
     3    1   73 1    
     4    1   74 1    
     5    2    3 2    
     6    2    4 am   BACKBONE|DICT|INTERRES
     7    4    5 1    
     8    4   75 1    
     9    5    6 1    
    10    5   35 1    
    11    5   76 1    
    12    6    7 1    
    13    6   77 1    
    14    6   78 1    
    15    7    8 1    
    16    8    9 1    
    17    8   79 1    
    18    8   80 1    
    19    9   10 ar   
    20    9   14 ar   
    21   10   11 ar   
    22   10   81 1    
    23   11   12 ar   
    24   11   71 1    
    25   12   13 ar   
    26   12   82 1    
    27   13   14 ar   
    28   13   15 1    
    29   14   83 1    
    30   15   16 1    
    31   15   84 1    
    32   15   85 1    
    33   16   17 1    
    34   17   18 1    
    35   17   86 1    
    36   17   87 1    
    37   18   19 1    
    38   18   37 1    
    39   18   88 1    
    40   19   20 am   BACKBONE|DICT|INTERRES
    41   19   89 1    
    42   20   21 2    
    43   20   22 1    
    44   22   23 1    
    45   22   24 1    
    46   22   90 1    
    47   23   91 1    
    48   23   92 1    
    49   23   93 1    
    50   24   25 am   BACKBONE|DICT|INTERRES
    51   24   94 1    
    52   25   26 2    
    53   25   27 1    
    54   27   28 1    
    55   27   29 1    
    56   27   95 1    
    57   28   96 1    
    58   28   97 1    
    59   28   98 1    
    60   29   30 am   BACKBONE|DICT|INTERRES
    61   29   99 1    
    62   30   31 2    
    63   30   32 1    
    64   32   33 1    
    65   32   34 1    
    66   32  100 1    
    67   33  101 1    
    68   33  102 1    
    69   33  103 1    
    70   34   35 am   BACKBONE|DICT|INTERRES
    71   34  104 1    
    72   35   36 2    
    73   37   38 2    
    74   37   39 am   BACKBONE|DICT|INTERRES
    75   39   40 1    
    76   39  105 1    
    77   40   41 1    
    78   40   42 1    
    79   40  106 1    
    80   41  107 1    
    81   41  108 1    
    82   41  109 1    
    83   42   43 2    
    84   42   44 am   BACKBONE|DICT|INTERRES
    85   44   45 1    
    86   44  110 1    
    87   45   46 1    
    88   45   47 1    
    89   45  111 1    
    90   46  112 1    
    91   46  113 1    
    92   46  114 1    
    93   47   48 2    
    94   47   49 am   BACKBONE|DICT|INTERRES
    95   49   50 1    
    96   49  115 1    
    97   50   51 1    
    98   50   52 1    
    99   50  116 1    
   100   51  117 1    
   101   51  118 1    
   102   51  119 1    
   103   52   53 2    
   104   52   54 am   BACKBONE|DICT|INTERRES
   105   54   55 1    
   106   54  120 1    
   107   55   56 1    
   108   55   57 1    
   109   55  121 1    
   110   56  122 1    
   111   56  123 1    
   112   56  124 1    
   113   57   58 2    
   114   57   59 am   BACKBONE|DICT|INTERRES
   115   59   60 1    
   116   59  125 1    
   117   60   61 1    
   118   60   62 1    
   119   60  126 1    
   120   61  127 1    
   121   61  128 1    
   122   61  129 1    
   123   62   63 2    
   124   62   64 am   BACKBONE|DICT|INTERRES
   125   64   65 1    
   126   64  130 1    
   127   65   66 1    
   128   65   69 1    
   129   65  131 1    
   130   66   67 am   BACKBONE|DICT|INTERRES
   131   66   68 2    
   132   67  132 1    
   133   67  133 1    
   134   69   70 1    
   135   69  134 1    
   136   69  135 1    
   137   70   71 1    
   138   71  136 1    
   139   71  137 1    
@<TRIPOS>SUBSTRUCTURE
     1 UNK         1 GROUP             0       ****    0 ROOT    
