@<TRIPOS>MOLECULE
3R136
137   139    1
SMALL
USER_CHARGES


@<TRIPOS>ATOM
      1 CA         25.2580   22.1098    0.4988 C.3       0 UNK        -0.1979 
      2 C          26.1473   22.9567   -0.3989 C.2       0 UNK         0.4864 
      3 O          25.7182   23.3725   -1.4765 O.2       0 UNK        -0.5359 
      4 N          27.3741   23.2411    0.0509 N.am      1 UNK        -0.4318 
      5 CA         28.3640   24.0754   -0.6284 C.3       1 UNK         0.0824 
      6 C6         29.7823   23.7590   -0.1046 C.3       12 UNK        -0.0944 
      7 S7         31.0908   24.2561   -1.2661 S.3       12 UNK        -0.2672 
      8 C8         32.4989   23.3108   -0.6031 C.3       12 UNK         0.0333 
      9 C9         32.8611   23.7558    0.8068 C.ar      12 UNK        -0.0807 
     10 C10        33.6523   24.8921    0.9985 C.ar      12 UNK        -0.0894 
     11 C11        33.9810   25.3144    2.2887 C.ar      12 UNK        -0.0804 
     12 C12        33.5199   24.5900    3.3901 C.ar      12 UNK        -0.0824 
     13 C13        32.7242   23.4546    3.2132 C.ar      12 UNK        -0.0762 
     14 C14        32.4037   23.0372    1.9178 C.ar      12 UNK        -0.0782 
     15 C15        32.2234   22.6774    4.4243 C.3       12 UNK         0.0230 
     16 S16        30.4673   23.0046    4.7941 S.3       12 UNK        -0.2608 
     17 C17        30.4534   24.8112    5.0492 C.3       12 UNK        -0.0989 
     18 CA         29.6988   25.5363    3.9047 C.3       5 UNK         0.0716 
     19 N          28.2514   25.5233    4.1003 N.am      5 UNK        -0.4135 
     20 C          27.3642   24.7273    3.4992 C.2       4 UNK         0.5031 
     21 O          27.6609   23.7567    2.8019 O.2       4 UNK        -0.5229 
     22 CA         25.8821   25.0920    3.6790 C.3       4 UNK         0.0329 
     23 CB         25.6233   26.2597    4.6622 C.3       4 UNK        -0.2001 
     24 N          25.3180   25.4016    2.3647 N.am      4 UNK        -0.4303 
     25 C          24.0129   25.3724    2.0630 C.2       3 UNK         0.5044 
     26 O          23.1419   25.0709    2.8806 O.2       3 UNK        -0.5152 
     27 CA         23.5813   25.6849    0.6139 C.3       3 UNK         0.0319 
     28 CB         22.4018   26.6797    0.5616 C.3       3 UNK        -0.2001 
     29 N          24.6657   26.0867   -0.2926 N.am      3 UNK        -0.4354 
     30 C          25.3540   27.2400   -0.3150 C.2       2 UNK         0.4964 
     31 O          25.1691   28.1728    0.4666 O.2       2 UNK        -0.5047 
     32 CA         26.4615   27.3261   -1.3874 C.3       2 UNK         0.0288 
     33 CB         27.3690   28.5638   -1.2425 C.3       2 UNK        -0.2113 
     34 N          27.2501   26.0883   -1.4408 N.am      2 UNK        -0.4145 
     35 C          27.9606   25.5499   -0.4378 C.2       1 UNK         0.5006 
     36 O          28.1970   26.1216    0.6315 O.2       1 UNK        -0.5103 
     37 C          30.0537   27.0258    3.7769 C.2       5 UNK         0.5055 
     38 O          30.6606   27.6049    4.6814 O.2       5 UNK        -0.5220 
     39 N          29.5569   27.6419    2.6970 N.am      6 UNK        -0.4450 
     40 CA         29.4871   29.0921    2.5237 C.3       6 UNK         0.0367 
     41 CB         28.0216   29.5342    2.7002 C.3       6 UNK        -0.1929 
     42 C          30.0848   29.5492    1.1848 C.2       6 UNK         0.5070 
     43 O          29.6892   30.5971    0.6727 O.2       6 UNK        -0.5237 
     44 N          31.0401   28.7795    0.6405 N.am      7 UNK        -0.4739 
     45 CA         31.7369   29.0768   -0.6203 C.3       7 UNK         0.0276 
     46 CB         32.6774   27.9172   -0.9780 C.3       7 UNK        -0.1927 
     47 C          32.5089   30.4099   -0.6017 C.2       7 UNK         0.5013 
     48 O          32.5881   31.0779   -1.6332 O.2       7 UNK        -0.5193 
     49 N          33.0155   30.7871    0.5781 N.am      8 UNK        -0.4253 
     50 CA         33.5342   32.1153    0.8882 C.3       8 UNK         0.0242 
     51 CB         35.0642   32.0640    1.0510 C.3       8 UNK        -0.2000 
     52 C          32.7953   32.6276    2.1324 C.2       8 UNK         0.4948 
     53 O          33.3818   32.7309    3.2114 O.2       8 UNK        -0.5275 
     54 N          31.4929   32.8917    1.9560 N.am      9 UNK        -0.4246 
     55 CA         30.5181   33.4555    2.9014 C.3       9 UNK         0.0261 
     56 CB         30.9398   34.8587    3.3810 C.3       9 UNK        -0.1959 
     57 C          30.1538   32.5505    4.0912 C.2       9 UNK         0.5033 
     58 O          28.9656   32.3563    4.3473 O.2       9 UNK        -0.5390 
     59 N          31.1585   32.0217    4.7949 N.am      10 UNK        -0.4215 
     60 CA         31.0215   31.1620    5.9720 C.3       10 UNK         0.0240 
     61 CB         30.4885   31.9641    7.1807 C.3       10 UNK        -0.1982 
     62 C          32.3741   30.4960    6.2541 C.2       10 UNK         0.4970 
     63 O          32.9415   30.6756    7.3335 O.2       10 UNK        -0.4916 
     64 N          32.8933   29.7818    5.2511 N.am      11 UNK        -0.4279 
     65 CA         34.1934   29.1008    5.3043 C.3       11 UNK         0.1003 
     66 C          34.1879   27.7492    6.0741 C.2       11 UNK         0.5709 
     67 N          33.0388   27.1331    6.3231 N.am      11 UNK        -0.7358 
     68 O          35.2454   27.2639    6.4683 O.2       11 UNK        -0.4999 
     69 C69        34.8200   28.9875    3.8935 C.3       12 UNK        -0.0954 
     70 S70        33.8047   28.0284    2.7181 S.3       12 UNK        -0.2268 
     71 C71        34.8384   26.5477    2.5056 C.3       12 UNK         0.0203 
     72 H72        25.1859   21.0970    0.1037 H         1 UNK         0.0888 
     73 H73        25.6482   22.0539    1.5153 H         1 UNK         0.0888 
     74 H74        24.2534   22.5273    0.5465 H         1 UNK         0.0888 
     75 H75        27.6045   23.0176    1.0163 H         1 UNK         0.3017 
     76 H76        28.3330   23.8309   -1.6928 H         1 UNK         0.0873 
     77 H77        29.8814   22.6828    0.0473 H         1 UNK         0.0745 
     78 H78        29.9650   24.2138    0.8686 H         1 UNK         0.0745 
     79 H79        32.2653   22.2452   -0.6235 H         1 UNK         0.0705 
     80 H80        33.3572   23.4466   -1.2628 H         1 UNK         0.0705 
     81 H81        34.0073   25.4486    0.1423 H         1 UNK         0.1334 
     82 H82        33.7773   24.9192    4.3878 H         1 UNK         0.1417 
     83 H83        31.7871   22.1597    1.7778 H         1 UNK         0.1562 
     84 H84        32.8221   22.9116    5.3060 H         1 UNK         0.0748 
     85 H85        32.3521   21.6086    4.2474 H         1 UNK         0.0748 
     86 H86        31.4822   25.1595    5.1260 H         1 UNK         0.0940 
     87 H87        29.9989   25.0323    6.0164 H         1 UNK         0.0940 
     88 H88        29.9592   25.0718    2.9528 H         1 UNK         0.0703 
     89 H89        27.8944   26.2977    4.6417 H         1 UNK         0.3081 
     90 H90        25.3925   24.1971    4.0688 H         1 UNK         0.0719 
     91 H91        26.0532   26.0590    5.6446 H         1 UNK         0.0809 
     92 H92        26.0324   27.2020    4.2949 H         1 UNK         0.0809 
     93 H93        24.5554   26.4117    4.8196 H         1 UNK         0.0809 
     94 H94        25.9885   25.6373    1.6442 H         1 UNK         0.2990 
     95 H95        23.2135   24.7398    0.2127 H         1 UNK         0.0690 
     96 H96        22.0910   26.8751   -0.4647 H         1 UNK         0.0788 
     97 H97        22.6525   27.6339    1.0256 H         1 UNK         0.0788 
     98 H98        21.5336   26.2847    1.0905 H         1 UNK         0.0788 
     99 H99        24.9353   25.3734   -0.9616 H         1 UNK         0.2993 
    100 H100       25.9472   27.4095   -2.3462 H         1 UNK         0.0949 
    101 H101       27.8772   28.5748   -0.2814 H         1 UNK         0.0767 
    102 H102       28.1293   28.5953   -2.0227 H         1 UNK         0.0767 
    103 H103       26.7903   29.4855   -1.3125 H         1 UNK         0.0767 
    104 H104       27.0902   25.5120   -2.2569 H         1 UNK         0.3013 
    105 H105       29.0791   27.0867    1.9862 H         1 UNK         0.3121 
    106 H106       30.0794   29.5937    3.2901 H         1 UNK         0.0774 
    107 H107       27.9050   30.6081    2.5511 H         1 UNK         0.0815 
    108 H108       27.3599   29.0329    1.9937 H         1 UNK         0.0815 
    109 H109       27.6641   29.3141    3.7058 H         1 UNK         0.0815 
    110 H110       31.3142   27.9378    1.1279 H         1 UNK         0.2987 
    111 H111       30.9756   29.1529   -1.3998 H         1 UNK         0.0949 
    112 H112       32.1387   26.9725   -1.0295 H         1 UNK         0.0806 
    113 H113       33.1407   28.0785   -1.9523 H         1 UNK         0.0806 
    114 H114       33.4818   27.8092   -0.2508 H         1 UNK         0.0806 
    115 H115       32.9069   30.1560    1.3602 H         1 UNK         0.3010 
    116 H116       33.3097   32.8141    0.0790 H         1 UNK         0.0829 
    117 H117       35.3742   31.3681    1.8271 H         1 UNK         0.0813 
    118 H118       35.4600   33.0452    1.3158 H         1 UNK         0.0813 
    119 H119       35.5467   31.7597    0.1221 H         1 UNK         0.0813 
    120 H120       31.1006   32.6611    1.0515 H         1 UNK         0.3038 
    121 H121       29.6012   33.5775    2.3218 H         1 UNK         0.0769 
    122 H122       31.0984   35.5337    2.5400 H         1 UNK         0.0811 
    123 H123       31.8584   34.8336    3.9681 H         1 UNK         0.0811 
    124 H124       30.1671   35.3023    4.0104 H         1 UNK         0.0811 
    125 H125       32.1083   32.2301    4.4854 H         1 UNK         0.3204 
    126 H126       30.3114   30.3641    5.7440 H         1 UNK         0.0748 
    127 H127       31.1398   32.8049    7.4227 H         1 UNK         0.0771 
    128 H128       29.4896   32.3583    6.9953 H         1 UNK         0.0771 
    129 H129       30.4207   31.3345    8.0689 H         1 UNK         0.0771 
    130 H130       32.3416   29.6102    4.4244 H         1 UNK         0.2980 
    131 H131       34.8655   29.7449    5.8750 H         1 UNK         0.0545 
    132 H132       33.0441   26.2773    6.8523 H         1 UNK         0.3459 
    133 H133       32.1744   27.4827    5.9223 H         1 UNK         0.3459 
    134 H134       35.8306   28.5802    3.9506 H         1 UNK         0.0616 
    135 H135       34.9384   29.9894    3.4857 H         1 UNK         0.0616 
    136 H136       35.4661   26.3930    3.3845 H         1 UNK         0.0634 
    137 H137       35.5165   26.7003    1.6648 H         1 UNK         0.0634 
@<TRIPOS>BOND
     1    1    2 1    
     2    1   72 1    
     3    1   73 1    
     4    1   74 1    
     5    2    3 2    
     6    2    4 am   BACKBONE|DICT|INTERRES
     7    4    5 1    
     8    4   75 1    
     9    5    6 1    
    10    5   35 1    
    11    5   76 1    
    12    6    7 1    
    13    6   77 1    
    14    6   78 1    
    15    7    8 1    
    16    8    9 1    
    17    8   79 1    
    18    8   80 1    
    19    9   10 ar   
    20    9   14 ar   
    21   10   11 ar   
    22   10   81 1    
    23   11   12 ar   
    24   11   71 1    
    25   12   13 ar   
    26   12   82 1    
    27   13   14 ar   
    28   13   15 1    
    29   14   83 1    
    30   15   16 1    
    31   15   84 1    
    32   15   85 1    
    33   16   17 1    
    34   17   18 1    
    35   17   86 1    
    36   17   87 1    
    37   18   19 1    
    38   18   37 1    
    39   18   88 1    
    40   19   20 am   BACKBONE|DICT|INTERRES
    41   19   89 1    
    42   20   21 2    
    43   20   22 1    
    44   22   23 1    
    45   22   24 1    
    46   22   90 1    
    47   23   91 1    
    48   23   92 1    
    49   23   93 1    
    50   24   25 am   BACKBONE|DICT|INTERRES
    51   24   94 1    
    52   25   26 2    
    53   25   27 1    
    54   27   28 1    
    55   27   29 1    
    56   27   95 1    
    57   28   96 1    
    58   28   97 1    
    59   28   98 1    
    60   29   30 am   BACKBONE|DICT|INTERRES
    61   29   99 1    
    62   30   31 2    
    63   30   32 1    
    64   32   33 1    
    65   32   34 1    
    66   32  100 1    
    67   33  101 1    
    68   33  102 1    
    69   33  103 1    
    70   34   35 am   BACKBONE|DICT|INTERRES
    71   34  104 1    
    72   35   36 2    
    73   37   38 2    
    74   37   39 am   BACKBONE|DICT|INTERRES
    75   39   40 1    
    76   39  105 1    
    77   40   41 1    
    78   40   42 1    
    79   40  106 1    
    80   41  107 1    
    81   41  108 1    
    82   41  109 1    
    83   42   43 2    
    84   42   44 am   BACKBONE|DICT|INTERRES
    85   44   45 1    
    86   44  110 1    
    87   45   46 1    
    88   45   47 1    
    89   45  111 1    
    90   46  112 1    
    91   46  113 1    
    92   46  114 1    
    93   47   48 2    
    94   47   49 am   BACKBONE|DICT|INTERRES
    95   49   50 1    
    96   49  115 1    
    97   50   51 1    
    98   50   52 1    
    99   50  116 1    
   100   51  117 1    
   101   51  118 1    
   102   51  119 1    
   103   52   53 2    
   104   52   54 am   BACKBONE|DICT|INTERRES
   105   54   55 1    
   106   54  120 1    
   107   55   56 1    
   108   55   57 1    
   109   55  121 1    
   110   56  122 1    
   111   56  123 1    
   112   56  124 1    
   113   57   58 2    
   114   57   59 am   BACKBONE|DICT|INTERRES
   115   59   60 1    
   116   59  125 1    
   117   60   61 1    
   118   60   62 1    
   119   60  126 1    
   120   61  127 1    
   121   61  128 1    
   122   61  129 1    
   123   62   63 2    
   124   62   64 am   BACKBONE|DICT|INTERRES
   125   64   65 1    
   126   64  130 1    
   127   65   66 1    
   128   65   69 1    
   129   65  131 1    
   130   66   67 am   BACKBONE|DICT|INTERRES
   131   66   68 2    
   132   67  132 1    
   133   67  133 1    
   134   69   70 1    
   135   69  134 1    
   136   69  135 1    
   137   70   71 1    
   138   71  136 1    
   139   71  137 1    
@<TRIPOS>SUBSTRUCTURE
     1 UNK         1 GROUP             0       ****    0 ROOT    
