@<TRIPOS>MOLECULE
3R136
137   139    1
SMALL
USER_CHARGES


@<TRIPOS>ATOM
      1 CA         29.4353   18.9153    2.2979 C.3       0 UNK        -0.1979 
      2 C          29.1310   20.3360    1.8482 C.2       0 UNK         0.4864 
      3 O          28.4545   21.0699    2.5693 O.2       0 UNK        -0.5359 
      4 N          29.6178   20.7216    0.6597 N.am      1 UNK        -0.4318 
      5 CA         29.5061   22.0370    0.0042 C.3       1 UNK         0.0824 
      6 C6         30.1263   23.2080    0.8090 C.3       12 UNK        -0.0944 
      7 S7         31.8924   22.9647    1.2246 S.3       12 UNK        -0.2672 
      8 C8         31.8789   22.7012    3.0320 C.3       12 UNK         0.0333 
      9 C9         31.3267   23.9060    3.7792 C.ar      12 UNK        -0.0807 
     10 C10        32.1320   25.0150    4.0506 C.ar      12 UNK        -0.0894 
     11 C11        31.5907   26.1504    4.6650 C.ar      12 UNK        -0.0804 
     12 C12        30.2308   26.1757    4.9976 C.ar      12 UNK        -0.0824 
     13 C13        29.4216   25.0665    4.7311 C.ar      12 UNK        -0.0762 
     14 C14        29.9870   23.9237    4.1660 C.ar      12 UNK        -0.0782 
     15 C15        27.9263   25.0867    4.9999 C.3       12 UNK         0.0230 
     16 S16        26.9903   24.9809    3.4350 S.3       12 UNK        -0.2608 
     17 C17        26.9147   26.7256    2.9204 C.3       12 UNK        -0.0989 
     18 CA         28.0639   27.1643    1.9733 C.3       5 UNK         0.0716 
     19 N          27.9263   26.6280    0.6096 N.am      5 UNK        -0.4135 
     20 C          28.8507   26.8067   -0.3503 C.2       4 UNK         0.5031 
     21 O          29.9608   27.2832   -0.1195 O.2       4 UNK        -0.5229 
     22 CA         28.5201   26.4208   -1.8074 C.3       4 UNK         0.0329 
     23 CB         29.6603   25.6222   -2.4670 C.3       4 UNK        -0.2001 
     24 N          27.2658   25.6842   -1.9582 N.am      4 UNK        -0.4303 
     25 C          26.0609   26.2465   -2.1327 C.2       3 UNK         0.5044 
     26 O          25.8791   27.4611   -2.2171 O.2       3 UNK        -0.5152 
     27 CA         24.8440   25.3024   -2.2124 C.3       3 UNK         0.0319 
     28 CB         24.4359   25.0736   -3.6766 C.3       3 UNK        -0.2001 
     29 N          25.0552   24.0038   -1.5652 N.am      3 UNK        -0.4354 
     30 C          25.3172   23.8299   -0.2625 C.2       2 UNK         0.4964 
     31 O          25.3554   24.7558    0.5465 O.2       2 UNK        -0.5047 
     32 CA         25.6333   22.3983    0.2091 C.3       2 UNK         0.0288 
     33 CB         25.0612   21.2984   -0.7137 C.3       2 UNK        -0.2113 
     34 N          27.0716   22.1891    0.4148 N.am      2 UNK        -0.4145 
     35 C          28.0720   22.3859   -0.4571 C.2       1 UNK         0.5006 
     36 O          27.9048   22.8176   -1.5993 O.2       1 UNK        -0.5103 
     37 C          28.1220   28.7083    1.9616 C.2       5 UNK         0.5055 
     38 O          27.4179   29.3497    1.1770 O.2       5 UNK        -0.5220 
     39 N          28.8958   29.2667    2.8943 N.am      6 UNK        -0.4450 
     40 CA         28.9092   30.6766    3.2674 C.3       6 UNK         0.0367 
     41 CB         30.0232   31.4190    2.5051 C.3       6 UNK        -0.1929 
     42 C          29.1081   30.7413    4.7877 C.2       6 UNK         0.5070 
     43 O          29.4200   29.7217    5.4116 O.2       6 UNK        -0.5237 
     44 N          28.9347   31.9324    5.3707 N.am      7 UNK        -0.4739 
     45 CA         29.0479   32.1903    6.8115 C.3       7 UNK         0.0276 
     46 CB         28.2851   33.4876    7.1416 C.3       7 UNK        -0.1927 
     47 C          30.5135   32.2238    7.2954 C.2       7 UNK         0.5013 
     48 O          30.9681   33.2528    7.7986 O.2       7 UNK        -0.5193 
     49 N          31.2229   31.0993    7.1106 N.am      8 UNK        -0.4253 
     50 CA         32.6448   30.8717    7.4074 C.3       8 UNK         0.0242 
     51 CB         32.8851   30.8429    8.9318 C.3       8 UNK        -0.2000 
     52 C          33.5578   31.8705    6.6688 C.2       8 UNK         0.4948 
     53 O          34.4314   32.4887    7.2814 O.2       8 UNK        -0.5275 
     54 N          33.3021   32.0288    5.3657 N.am      9 UNK        -0.4246 
     55 CA         33.9471   32.9996    4.4877 C.3       9 UNK         0.0261 
     56 CB         33.0227   34.2268    4.3293 C.3       9 UNK        -0.1959 
     57 C          34.3189   32.3008    3.1722 C.2       9 UNK         0.5033 
     58 O          34.9709   31.2548    3.2113 O.2       9 UNK        -0.5390 
     59 N          33.9079   32.8694    2.0315 N.am      10 UNK        -0.4215 
     60 CA         34.1441   32.3481    0.6834 C.3       10 UNK         0.0240 
     61 CB         33.9736   33.4964   -0.3296 C.3       10 UNK        -0.1982 
     62 C          33.2410   31.1402    0.3655 C.2       10 UNK         0.4970 
     63 O          32.3697   31.2313   -0.5021 O.2       10 UNK        -0.4916 
     64 N          33.4598   30.0352    1.0859 N.am      11 UNK        -0.4279 
     65 CA         32.7684   28.7460    0.9367 C.3       11 UNK         0.1003 
     66 C          33.1820   27.9917   -0.3646 C.2       11 UNK         0.5709 
     67 N          32.9683   28.5797   -1.5340 N.am      11 UNK        -0.7358 
     68 O          33.7227   26.8883   -0.3259 O.2       11 UNK        -0.4999 
     69 C69        32.9141   27.8680    2.2097 C.3       12 UNK        -0.0954 
     70 S70        32.2774   28.6714    3.7184 S.3       12 UNK        -0.2268 
     71 C71        32.4761   27.3533    4.9559 C.3       12 UNK         0.0203 
     72 H72        30.0422   18.3770    1.5702 H         1 UNK         0.0888 
     73 H73        29.9752   18.9309    3.2442 H         1 UNK         0.0888 
     74 H74        28.5081   18.3617    2.4432 H         1 UNK         0.0888 
     75 H75        30.1417   20.0433    0.1241 H         1 UNK         0.3017 
     76 H76        30.0918   21.9403   -0.9117 H         1 UNK         0.0873 
     77 H77        29.5352   23.3976    1.6999 H         1 UNK         0.0745 
     78 H78        30.0717   24.1327    0.2351 H         1 UNK         0.0745 
     79 H79        32.8976   22.4996    3.3662 H         1 UNK         0.0705 
     80 H80        31.3007   21.8063    3.2647 H         1 UNK         0.0705 
     81 H81        33.1734   25.0038    3.7590 H         1 UNK         0.1334 
     82 H82        29.8048   27.0621    5.4480 H         1 UNK         0.1417 
     83 H83        29.3572   23.0681    3.9622 H         1 UNK         0.1562 
     84 H84        27.6334   25.9725    5.5652 H         1 UNK         0.0748 
     85 H85        27.6677   24.2281    5.6213 H         1 UNK         0.0748 
     86 H86        26.8932   27.3333    3.8277 H         1 UNK         0.0940 
     87 H87        25.9489   26.8934    2.4394 H         1 UNK         0.0940 
     88 H88        29.0110   26.7945    2.3726 H         1 UNK         0.0703 
     89 H89        27.0346   26.2086    0.3779 H         1 UNK         0.3081 
     90 H90        28.4394   27.3635   -2.3526 H         1 UNK         0.0719 
     91 H91        29.4538   25.4407   -3.5218 H         1 UNK         0.0809 
     92 H92        30.6051   26.1655   -2.4155 H         1 UNK         0.0809 
     93 H93        29.8156   24.6564   -1.9898 H         1 UNK         0.0809 
     94 H94        27.3282   24.6714   -1.8957 H         1 UNK         0.2990 
     95 H95        24.0166   25.7963   -1.6987 H         1 UNK         0.0690 
     96 H96        24.2423   26.0216   -4.1806 H         1 UNK         0.0788 
     97 H97        23.5245   24.4796   -3.7474 H         1 UNK         0.0788 
     98 H98        25.2179   24.5600   -4.2375 H         1 UNK         0.0788 
     99 H99        25.0793   23.1926   -2.1664 H         1 UNK         0.2993 
    100 H100       25.1610   22.2909    1.1870 H         1 UNK         0.0949 
    101 H101       25.5488   21.2763   -1.6890 H         1 UNK         0.0767 
    102 H102       25.1882   20.3130   -0.2651 H         1 UNK         0.0767 
    103 H103       23.9916   21.4378   -0.8778 H         1 UNK         0.0767 
    104 H104       27.3467   21.8579    1.3386 H         1 UNK         0.3013 
    105 H105       29.4040   28.6798    3.5460 H         1 UNK         0.3121 
    106 H106       27.9423   31.1279    3.0345 H         1 UNK         0.0774 
    107 H107       31.0156   31.0698    2.7856 H         1 UNK         0.0815 
    108 H108       29.9890   32.4905    2.7031 H         1 UNK         0.0815 
    109 H109       29.9205   31.2877    1.4276 H         1 UNK         0.0815 
    110 H110       28.7075   32.7283    4.7914 H         1 UNK         0.2987 
    111 H111       28.5569   31.3759    7.3496 H         1 UNK         0.0949 
    112 H112       28.7141   34.3506    6.6307 H         1 UNK         0.0806 
    113 H113       27.2355   33.4152    6.8560 H         1 UNK         0.0806 
    114 H114       28.3123   33.6957    8.2122 H         1 UNK         0.0806 
    115 H115       30.7364   30.3404    6.6376 H         1 UNK         0.3010 
    116 H116       32.8920   29.8842    7.0155 H         1 UNK         0.0829 
    117 H117       32.2477   30.1057    9.4197 H         1 UNK         0.0813 
    118 H118       33.9185   30.5781    9.1590 H         1 UNK         0.0813 
    119 H119       32.6896   31.8123    9.3915 H         1 UNK         0.0813 
    120 H120       32.6199   31.4231    4.9318 H         1 UNK         0.3038 
    121 H121       34.8890   33.3348    4.9269 H         1 UNK         0.0769 
    122 H122       32.0670   33.9649    3.8731 H         1 UNK         0.0811 
    123 H123       33.4890   35.0053    3.7241 H         1 UNK         0.0811 
    124 H124       32.8053   34.6737    5.3001 H         1 UNK         0.0811 
    125 H125       33.3588   33.7145    2.0932 H         1 UNK         0.3204 
    126 H126       35.1787   32.0035    0.6198 H         1 UNK         0.0748 
    127 H127       34.6710   34.3099   -0.1286 H         1 UNK         0.0771 
    128 H128       34.1668   33.1517   -1.3465 H         1 UNK         0.0771 
    129 H129       32.9633   33.9075   -0.3112 H         1 UNK         0.0771 
    130 H130       34.1598   30.0848    1.8191 H         1 UNK         0.2980 
    131 H131       31.7048   28.9654    0.8315 H         1 UNK         0.0545 
    132 H132       32.5573   29.5053   -1.5511 H         1 UNK         0.3459 
    133 H133       33.2336   28.1161   -2.3876 H         1 UNK         0.3459 
    134 H134       32.3649   26.9364    2.0661 H         1 UNK         0.0616 
    135 H135       33.9579   27.5955    2.3743 H         1 UNK         0.0616 
    136 H136       32.2261   27.7548    5.9386 H         1 UNK         0.0634 
    137 H137       33.5259   27.0596    5.0027 H         1 UNK         0.0634 
@<TRIPOS>BOND
     1    1    2 1    
     2    1   72 1    
     3    1   73 1    
     4    1   74 1    
     5    2    3 2    
     6    2    4 am   BACKBONE|DICT|INTERRES
     7    4    5 1    
     8    4   75 1    
     9    5    6 1    
    10    5   35 1    
    11    5   76 1    
    12    6    7 1    
    13    6   77 1    
    14    6   78 1    
    15    7    8 1    
    16    8    9 1    
    17    8   79 1    
    18    8   80 1    
    19    9   10 ar   
    20    9   14 ar   
    21   10   11 ar   
    22   10   81 1    
    23   11   12 ar   
    24   11   71 1    
    25   12   13 ar   
    26   12   82 1    
    27   13   14 ar   
    28   13   15 1    
    29   14   83 1    
    30   15   16 1    
    31   15   84 1    
    32   15   85 1    
    33   16   17 1    
    34   17   18 1    
    35   17   86 1    
    36   17   87 1    
    37   18   19 1    
    38   18   37 1    
    39   18   88 1    
    40   19   20 am   BACKBONE|DICT|INTERRES
    41   19   89 1    
    42   20   21 2    
    43   20   22 1    
    44   22   23 1    
    45   22   24 1    
    46   22   90 1    
    47   23   91 1    
    48   23   92 1    
    49   23   93 1    
    50   24   25 am   BACKBONE|DICT|INTERRES
    51   24   94 1    
    52   25   26 2    
    53   25   27 1    
    54   27   28 1    
    55   27   29 1    
    56   27   95 1    
    57   28   96 1    
    58   28   97 1    
    59   28   98 1    
    60   29   30 am   BACKBONE|DICT|INTERRES
    61   29   99 1    
    62   30   31 2    
    63   30   32 1    
    64   32   33 1    
    65   32   34 1    
    66   32  100 1    
    67   33  101 1    
    68   33  102 1    
    69   33  103 1    
    70   34   35 am   BACKBONE|DICT|INTERRES
    71   34  104 1    
    72   35   36 2    
    73   37   38 2    
    74   37   39 am   BACKBONE|DICT|INTERRES
    75   39   40 1    
    76   39  105 1    
    77   40   41 1    
    78   40   42 1    
    79   40  106 1    
    80   41  107 1    
    81   41  108 1    
    82   41  109 1    
    83   42   43 2    
    84   42   44 am   BACKBONE|DICT|INTERRES
    85   44   45 1    
    86   44  110 1    
    87   45   46 1    
    88   45   47 1    
    89   45  111 1    
    90   46  112 1    
    91   46  113 1    
    92   46  114 1    
    93   47   48 2    
    94   47   49 am   BACKBONE|DICT|INTERRES
    95   49   50 1    
    96   49  115 1    
    97   50   51 1    
    98   50   52 1    
    99   50  116 1    
   100   51  117 1    
   101   51  118 1    
   102   51  119 1    
   103   52   53 2    
   104   52   54 am   BACKBONE|DICT|INTERRES
   105   54   55 1    
   106   54  120 1    
   107   55   56 1    
   108   55   57 1    
   109   55  121 1    
   110   56  122 1    
   111   56  123 1    
   112   56  124 1    
   113   57   58 2    
   114   57   59 am   BACKBONE|DICT|INTERRES
   115   59   60 1    
   116   59  125 1    
   117   60   61 1    
   118   60   62 1    
   119   60  126 1    
   120   61  127 1    
   121   61  128 1    
   122   61  129 1    
   123   62   63 2    
   124   62   64 am   BACKBONE|DICT|INTERRES
   125   64   65 1    
   126   64  130 1    
   127   65   66 1    
   128   65   69 1    
   129   65  131 1    
   130   66   67 am   BACKBONE|DICT|INTERRES
   131   66   68 2    
   132   67  132 1    
   133   67  133 1    
   134   69   70 1    
   135   69  134 1    
   136   69  135 1    
   137   70   71 1    
   138   71  136 1    
   139   71  137 1    
@<TRIPOS>SUBSTRUCTURE
     1 UNK         1 GROUP             0       ****    0 ROOT    
