@<TRIPOS>MOLECULE
3R136
137   139    1
SMALL
USER_CHARGES


@<TRIPOS>ATOM
      1 CA         30.4216   16.7521    1.3808 C.3       0 UNK        -0.1979 
      2 C          30.7375   18.2346    1.5148 C.2       0 UNK         0.4864 
      3 O          31.9095   18.6052    1.6007 O.2       0 UNK        -0.5359 
      4 N          29.7022   19.0830    1.5429 N.am      1 UNK        -0.4318 
      5 CA         29.8161   20.5416    1.6228 C.3       1 UNK         0.0824 
      6 C6         28.4469   21.2132    1.9051 C.3       12 UNK        -0.0944 
      7 S7         27.6314   20.6697    3.4440 S.3       12 UNK        -0.2672 
      8 C8         28.4637   21.6514    4.7401 C.3       12 UNK         0.0333 
      9 C9         28.5829   23.1392    4.4224 C.ar      12 UNK        -0.0807 
     10 C10        29.8394   23.7501    4.4561 C.ar      12 UNK        -0.0894 
     11 C11        29.9778   25.1105    4.1730 C.ar      12 UNK        -0.0804 
     12 C12        28.8502   25.8612    3.8341 C.ar      12 UNK        -0.0824 
     13 C13        27.5837   25.2665    3.7985 C.ar      12 UNK        -0.0762 
     14 C14        27.4553   23.9064    4.1050 C.ar      12 UNK        -0.0782 
     15 C15        26.3655   26.0841    3.3862 C.3       12 UNK         0.0230 
     16 S16        26.1638   27.5696    4.4180 S.3       12 UNK        -0.2608 
     17 C17        25.6804   28.8292    3.1893 C.3       12 UNK        -0.0989 
     18 CA         26.8960   29.6845    2.7539 C.3       5 UNK         0.0716 
     19 N          27.7845   28.9804    1.8144 N.am      5 UNK        -0.4135 
     20 C          29.0040   29.3990    1.4458 C.2       4 UNK         0.5031 
     21 O          29.5047   30.4347    1.8878 O.2       4 UNK        -0.5229 
     22 CA         29.7940   28.5576    0.4180 C.3       4 UNK         0.0329 
     23 CB         31.3105   28.7760    0.5559 C.3       4 UNK        -0.2001 
     24 N          29.5142   27.1162    0.4597 N.am      4 UNK        -0.4303 
     25 C          28.4059   26.5310   -0.0124 C.2       3 UNK         0.5044 
     26 O          27.4552   27.1712   -0.4637 O.2       3 UNK        -0.5152 
     27 CA         28.3013   25.0000    0.1043 C.3       3 UNK         0.0319 
     28 CB         27.3461   24.3836   -0.9398 C.3       3 UNK        -0.2001 
     29 N          29.5841   24.2897    0.1275 N.am      3 UNK        -0.4354 
     30 C          30.4625   24.1311   -0.8770 C.2       2 UNK         0.4964 
     31 O          30.4052   24.7382   -1.9461 O.2       2 UNK        -0.5047 
     32 CA         31.5645   23.0674   -0.6716 C.3       2 UNK         0.0288 
     33 CB         32.9445   23.7058   -0.4483 C.3       2 UNK        -0.2113 
     34 N          31.2464   22.1509    0.4337 N.am      2 UNK        -0.4145 
     35 C          30.3861   21.1276    0.3146 C.2       1 UNK         0.5006 
     36 O          29.9633   20.7122   -0.7680 O.2       1 UNK        -0.5103 
     37 C          26.4602   31.0690    2.2288 C.2       5 UNK         0.5055 
     38 O          26.2765   31.9833    3.0332 O.2       5 UNK        -0.5220 
     39 N          26.3873   31.2308    0.8987 N.am      6 UNK        -0.4450 
     40 CA         26.1821   32.5161    0.2202 C.3       6 UNK         0.0367 
     41 CB         25.9604   32.2625   -1.2796 C.3       6 UNK        -0.1929 
     42 C          27.3346   33.5215    0.4292 C.2       6 UNK         0.5070 
     43 O          27.1133   34.7241    0.2894 O.2       6 UNK        -0.5237 
     44 N          28.5279   33.0208    0.7774 N.am      7 UNK        -0.4739 
     45 CA         29.7186   33.7980    1.1231 C.3       7 UNK         0.0276 
     46 CB         30.9056   33.2711    0.2952 C.3       7 UNK        -0.1927 
     47 C          30.0042   33.7363    2.6372 C.2       7 UNK         0.5013 
     48 O          31.1534   33.9136    3.0399 O.2       7 UNK        -0.5193 
     49 N          28.9667   33.4739    3.4489 N.am      8 UNK        -0.4253 
     50 CA         28.9901   33.3547    4.9131 C.3       8 UNK         0.0242 
     51 CB         29.3711   34.6965    5.5762 C.3       8 UNK        -0.2000 
     52 C          29.8339   32.1665    5.4187 C.2       8 UNK         0.4948 
     53 O          30.5120   32.2836    6.4407 O.2       8 UNK        -0.5275 
     54 N          29.7516   31.0394    4.6966 N.am      9 UNK        -0.4246 
     55 CA         30.4021   29.7499    4.9600 C.3       9 UNK         0.0261 
     56 CB         29.9764   29.1600    6.3217 C.3       9 UNK        -0.1959 
     57 C          31.9262   29.7903    4.7537 C.2       9 UNK         0.5033 
     58 O          32.6589   29.0599    5.4243 O.2       9 UNK        -0.5390 
     59 N          32.3843   30.6063    3.7945 N.am      10 UNK        -0.4215 
     60 CA         33.7895   30.7554    3.4042 C.3       10 UNK         0.0240 
     61 CB         33.9777   32.1248    2.7261 C.3       10 UNK        -0.1982 
     62 C          34.2844   29.5866    2.5268 C.2       10 UNK         0.4970 
     63 O          34.7732   29.8108    1.4181 O.2       10 UNK        -0.4916 
     64 N          34.1389   28.3570    3.0342 N.am      11 UNK        -0.4279 
     65 CA         34.5956   27.1170    2.3861 C.3       11 UNK         0.1003 
     66 C          36.1396   26.9131    2.4078 C.2       11 UNK         0.5709 
     67 N          36.9027   27.6590    3.1988 N.am      11 UNK        -0.7358 
     68 O          36.6558   26.0646    1.6845 O.2       11 UNK        -0.4999 
     69 C69        33.8684   25.8722    2.9570 C.3       12 UNK        -0.0954 
     70 S70        32.0829   25.8547    2.5806 S.3       12 UNK        -0.2268 
     71 C71        31.3486   25.7610    4.2357 C.3       12 UNK         0.0203 
     72 H72        30.8179   16.2051    2.2359 H         1 UNK         0.0888 
     73 H73        29.3489   16.5671    1.3279 H         1 UNK         0.0888 
     74 H74        30.8797   16.3513    0.4770 H         1 UNK         0.0888 
     75 H75        28.7612   18.7254    1.4627 H         1 UNK         0.3017 
     76 H76        30.4983   20.7807    2.4415 H         1 UNK         0.0873 
     77 H77        28.5406   22.2985    1.9221 H         1 UNK         0.0745 
     78 H78        27.7522   21.0012    1.0893 H         1 UNK         0.0745 
     79 H79        27.9126   21.5350    5.6740 H         1 UNK         0.0705 
     80 H80        29.4486   21.2149    4.9134 H         1 UNK         0.0705 
     81 H81        30.7149   23.1678    4.7097 H         1 UNK         0.1334 
     82 H82        28.9571   26.9109    3.6003 H         1 UNK         0.1417 
     83 H83        26.4824   23.4343    4.0767 H         1 UNK         0.1562 
     84 H84        25.4531   25.4894    3.4517 H         1 UNK         0.0748 
     85 H85        26.4720   26.3650    2.3395 H         1 UNK         0.0748 
     86 H86        24.9236   29.4507    3.6733 H         1 UNK         0.0940 
     87 H87        25.1831   28.3708    2.3326 H         1 UNK         0.0940 
     88 H88        27.4835   29.8898    3.6500 H         1 UNK         0.0703 
     89 H89        27.4081   28.1714    1.3356 H         1 UNK         0.3081 
     90 H90        29.5013   28.9241   -0.5681 H         1 UNK         0.0719 
     91 H91        31.6524   28.5453    1.5636 H         1 UNK         0.0809 
     92 H92        31.8738   28.1566   -0.1423 H         1 UNK         0.0809 
     93 H93        31.5813   29.8128    0.3540 H         1 UNK         0.0809 
     94 H94        30.2351   26.5272    0.8542 H         1 UNK         0.2990 
     95 H95        27.8558   24.8108    1.0793 H         1 UNK         0.0690 
     96 H96        27.2678   23.3032   -0.8172 H         1 UNK         0.0788 
     97 H97        27.6777   24.5830   -1.9593 H         1 UNK         0.0788 
     98 H98        26.3393   24.7916   -0.8413 H         1 UNK         0.0788 
     99 H99        29.7775   23.7947    0.9848 H         1 UNK         0.2993 
    100 H100       31.6194   22.4941   -1.6000 H         1 UNK         0.0949 
    101 H101       33.7304   22.9502   -0.4447 H         1 UNK         0.0767 
    102 H102       33.1821   24.4144   -1.2430 H         1 UNK         0.0767 
    103 H103       32.9999   24.2436    0.4941 H         1 UNK         0.0767 
    104 H104       31.5914   22.4060    1.3485 H         1 UNK         0.3013 
    105 H105       26.5470   30.4279    0.3072 H         1 UNK         0.3121 
    106 H106       25.2771   32.9700    0.6298 H         1 UNK         0.0774 
    107 H107       26.8294   31.7941   -1.7434 H         1 UNK         0.0815 
    108 H108       25.7735   33.1977   -1.8097 H         1 UNK         0.0815 
    109 H109       25.0977   31.6184   -1.4513 H         1 UNK         0.0815 
    110 H110       28.6195   32.0203    0.9123 H         1 UNK         0.2987 
    111 H111       29.5717   34.8509    0.8736 H         1 UNK         0.0949 
    112 H112       31.1460   32.2388    0.5500 H         1 UNK         0.0806 
    113 H113       30.6925   33.3117   -0.7730 H         1 UNK         0.0806 
    114 H114       31.8020   33.8684    0.4667 H         1 UNK         0.0806 
    115 H115       28.0636   33.3096    3.0195 H         1 UNK         0.3010 
    116 H116       27.9635   33.1304    5.2073 H         1 UNK         0.0829 
    117 H117       30.4113   34.9628    5.3863 H         1 UNK         0.0813 
    118 H118       28.7439   35.5109    5.2139 H         1 UNK         0.0813 
    119 H119       29.2428   34.6475    6.6582 H         1 UNK         0.0813 
    120 H120       29.2606   31.0873    3.8109 H         1 UNK         0.3038 
    121 H121       30.0294   29.0668    4.1974 H         1 UNK         0.0769 
    122 H122       30.3432   28.1401    6.4403 H         1 UNK         0.0811 
    123 H123       30.3678   29.7404    7.1574 H         1 UNK         0.0811 
    124 H124       28.8910   29.1228    6.4146 H         1 UNK         0.0811 
    125 H125       31.7106   31.1510    3.2730 H         1 UNK         0.3204 
    126 H126       34.4010   30.7527    4.3090 H         1 UNK         0.0748 
    127 H127       35.0210   32.2898    2.4538 H         1 UNK         0.0771 
    128 H128       33.3837   32.2095    1.8157 H         1 UNK         0.0771 
    129 H129       33.6882   32.9383    3.3916 H         1 UNK         0.0771 
    130 H130       33.7175   28.2685    3.9534 H         1 UNK         0.2980 
    131 H131       34.3296   27.1896    1.3296 H         1 UNK         0.0545 
    132 H132       37.9005   27.5173    3.1973 H         1 UNK         0.3459 
    133 H133       36.4921   28.3538    3.8007 H         1 UNK         0.3459 
    134 H134       34.2831   24.9552    2.5343 H         1 UNK         0.0616 
    135 H135       34.0314   25.8051    4.0337 H         1 UNK         0.0616 
    136 H136       31.9962   25.1901    4.9025 H         1 UNK         0.0634 
    137 H137       31.2765   26.7629    4.6567 H         1 UNK         0.0634 
@<TRIPOS>BOND
     1    1    2 1    
     2    1   72 1    
     3    1   73 1    
     4    1   74 1    
     5    2    3 2    
     6    2    4 am   BACKBONE|DICT|INTERRES
     7    4    5 1    
     8    4   75 1    
     9    5    6 1    
    10    5   35 1    
    11    5   76 1    
    12    6    7 1    
    13    6   77 1    
    14    6   78 1    
    15    7    8 1    
    16    8    9 1    
    17    8   79 1    
    18    8   80 1    
    19    9   10 ar   
    20    9   14 ar   
    21   10   11 ar   
    22   10   81 1    
    23   11   12 ar   
    24   11   71 1    
    25   12   13 ar   
    26   12   82 1    
    27   13   14 ar   
    28   13   15 1    
    29   14   83 1    
    30   15   16 1    
    31   15   84 1    
    32   15   85 1    
    33   16   17 1    
    34   17   18 1    
    35   17   86 1    
    36   17   87 1    
    37   18   19 1    
    38   18   37 1    
    39   18   88 1    
    40   19   20 am   BACKBONE|DICT|INTERRES
    41   19   89 1    
    42   20   21 2    
    43   20   22 1    
    44   22   23 1    
    45   22   24 1    
    46   22   90 1    
    47   23   91 1    
    48   23   92 1    
    49   23   93 1    
    50   24   25 am   BACKBONE|DICT|INTERRES
    51   24   94 1    
    52   25   26 2    
    53   25   27 1    
    54   27   28 1    
    55   27   29 1    
    56   27   95 1    
    57   28   96 1    
    58   28   97 1    
    59   28   98 1    
    60   29   30 am   BACKBONE|DICT|INTERRES
    61   29   99 1    
    62   30   31 2    
    63   30   32 1    
    64   32   33 1    
    65   32   34 1    
    66   32  100 1    
    67   33  101 1    
    68   33  102 1    
    69   33  103 1    
    70   34   35 am   BACKBONE|DICT|INTERRES
    71   34  104 1    
    72   35   36 2    
    73   37   38 2    
    74   37   39 am   BACKBONE|DICT|INTERRES
    75   39   40 1    
    76   39  105 1    
    77   40   41 1    
    78   40   42 1    
    79   40  106 1    
    80   41  107 1    
    81   41  108 1    
    82   41  109 1    
    83   42   43 2    
    84   42   44 am   BACKBONE|DICT|INTERRES
    85   44   45 1    
    86   44  110 1    
    87   45   46 1    
    88   45   47 1    
    89   45  111 1    
    90   46  112 1    
    91   46  113 1    
    92   46  114 1    
    93   47   48 2    
    94   47   49 am   BACKBONE|DICT|INTERRES
    95   49   50 1    
    96   49  115 1    
    97   50   51 1    
    98   50   52 1    
    99   50  116 1    
   100   51  117 1    
   101   51  118 1    
   102   51  119 1    
   103   52   53 2    
   104   52   54 am   BACKBONE|DICT|INTERRES
   105   54   55 1    
   106   54  120 1    
   107   55   56 1    
   108   55   57 1    
   109   55  121 1    
   110   56  122 1    
   111   56  123 1    
   112   56  124 1    
   113   57   58 2    
   114   57   59 am   BACKBONE|DICT|INTERRES
   115   59   60 1    
   116   59  125 1    
   117   60   61 1    
   118   60   62 1    
   119   60  126 1    
   120   61  127 1    
   121   61  128 1    
   122   61  129 1    
   123   62   63 2    
   124   62   64 am   BACKBONE|DICT|INTERRES
   125   64   65 1    
   126   64  130 1    
   127   65   66 1    
   128   65   69 1    
   129   65  131 1    
   130   66   67 am   BACKBONE|DICT|INTERRES
   131   66   68 2    
   132   67  132 1    
   133   67  133 1    
   134   69   70 1    
   135   69  134 1    
   136   69  135 1    
   137   70   71 1    
   138   71  136 1    
   139   71  137 1    
@<TRIPOS>SUBSTRUCTURE
     1 UNK         1 GROUP             0       ****    0 ROOT    
