@<TRIPOS>MOLECULE
3R136
137   139    1
SMALL
USER_CHARGES


@<TRIPOS>ATOM
      1 CA         29.7135   22.5759   -3.7563 C.3       0 UNK        -0.1979 
      2 C          29.2114   23.0826   -2.4138 C.2       0 UNK         0.4864 
      3 O          28.6498   24.1778   -2.3491 O.2       0 UNK        -0.5359 
      4 N          29.3949   22.2881   -1.3475 N.am      1 UNK        -0.4318 
      5 CA         29.0490   22.5993    0.0495 C.3       1 UNK         0.0824 
      6 C6         29.3605   21.4226    1.0068 C.3       12 UNK        -0.0944 
      7 S7         31.1164   20.9309    0.9581 S.3       12 UNK        -0.2672 
      8 C8         31.6664   21.3064    2.6562 C.3       12 UNK         0.0333 
      9 C9         31.6432   22.7969    2.9742 C.ar      12 UNK        -0.0807 
     10 C10        32.3890   23.6937    2.2022 C.ar      12 UNK        -0.0894 
     11 C11        32.3995   25.0610    2.4930 C.ar      12 UNK        -0.0804 
     12 C12        31.6456   25.5227    3.5803 C.ar      12 UNK        -0.0824 
     13 C13        30.9065   24.6390    4.3727 C.ar      12 UNK        -0.0762 
     14 C14        30.9093   23.2754    4.0647 C.ar      12 UNK        -0.0782 
     15 C15        30.1448   25.1691    5.5843 C.3       12 UNK         0.0230 
     16 S16        28.3429   24.8643    5.5472 S.3       12 UNK        -0.2608 
     17 C17        27.8577   25.1788    3.8159 C.3       12 UNK        -0.0989 
     18 CA         28.1979   26.5847    3.2586 C.3       5 UNK         0.0716 
     19 N          28.3952   26.5397    1.8044 N.am      5 UNK        -0.4135 
     20 C          29.0243   27.4887    1.0975 C.2       4 UNK         0.5031 
     21 O          29.4653   28.5208    1.5998 O.2       4 UNK        -0.5229 
     22 CA         29.1457   27.2941   -0.4224 C.3       4 UNK         0.0329 
     23 CB         30.4516   26.5694   -0.7748 C.3       4 UNK        -0.2001 
     24 N          28.0175   26.5989   -1.0466 N.am      4 UNK        -0.4303 
     25 C          26.7628   27.0697   -1.0930 C.2       3 UNK         0.5044 
     26 O          26.3846   28.0648   -0.4760 O.2       3 UNK        -0.5152 
     27 CA         25.7671   26.3082   -1.9793 C.3       3 UNK         0.0319 
     28 CB         26.0834   26.5277   -3.4683 C.3       3 UNK        -0.2001 
     29 N          25.8046   24.8796   -1.6792 N.am      3 UNK        -0.4354 
     30 C          24.9214   24.2460   -0.8952 C.2       2 UNK         0.4964 
     31 O          23.9016   24.7693   -0.4447 O.2       2 UNK        -0.5047 
     32 CA         25.2291   22.7807   -0.5278 C.3       2 UNK         0.0288 
     33 CB         24.4946   21.8225   -1.4797 C.3       2 UNK        -0.2113 
     34 N          26.6573   22.4446   -0.5156 N.am      2 UNK        -0.4145 
     35 C          27.5881   23.0524    0.2361 C.2       1 UNK         0.5006 
     36 O          27.3420   23.9754    1.0108 O.2       1 UNK        -0.5103 
     37 C          27.2007   27.6772    3.7098 C.2       5 UNK         0.5055 
     38 O          27.1901   28.0288    4.8896 O.2       5 UNK        -0.5220 
     39 N          26.4268   28.2556    2.7762 N.am      6 UNK        -0.4450 
     40 CA         25.6315   29.4650    3.0149 C.3       6 UNK         0.0367 
     41 CB         24.5960   29.6306    1.8915 C.3       6 UNK        -0.1929 
     42 C          26.4975   30.7360    3.1431 C.2       6 UNK         0.5070 
     43 O          26.0152   31.7351    3.6766 O.2       6 UNK        -0.5237 
     44 N          27.7507   30.6811    2.6709 N.am      7 UNK        -0.4739 
     45 CA         28.7491   31.7452    2.7510 C.3       7 UNK         0.0276 
     46 CB         29.0567   32.2505    1.3290 C.3       7 UNK        -0.1927 
     47 C          30.0023   31.2205    3.4721 C.2       7 UNK         0.5013 
     48 O          31.1228   31.4942    3.0382 O.2       7 UNK        -0.5193 
     49 N          29.7957   30.4819    4.5751 N.am      8 UNK        -0.4253 
     50 CA         30.8274   29.7993    5.3705 C.3       8 UNK         0.0242 
     51 CB         30.1678   29.1093    6.5746 C.3       8 UNK        -0.2000 
     52 C          31.9936   30.6849    5.8493 C.2       8 UNK         0.4948 
     53 O          33.0926   30.1689    6.0495 O.2       8 UNK        -0.5275 
     54 N          31.7576   31.9977    5.9826 N.am      9 UNK        -0.4246 
     55 CA         32.7769   33.0101    6.2688 C.3       9 UNK         0.0261 
     56 CB         32.0910   34.3656    6.5039 C.3       9 UNK        -0.1959 
     57 C          33.8581   33.1361    5.1761 C.2       9 UNK         0.5033 
     58 O          34.9832   33.5190    5.5001 O.2       9 UNK        -0.5390 
     59 N          33.5191   32.8119    3.9181 N.am      10 UNK        -0.4215 
     60 CA         34.4711   32.7518    2.8060 C.3       10 UNK         0.0240 
     61 CB         33.7262   32.9314    1.4728 C.3       10 UNK        -0.1982 
     62 C          35.2685   31.4370    2.8083 C.2       10 UNK         0.4970 
     63 O          36.4449   31.4480    2.4436 O.2       10 UNK        -0.4916 
     64 N          34.6209   30.3375    3.2156 N.am      11 UNK        -0.4279 
     65 CA         35.2364   29.0120    3.3752 C.3       11 UNK         0.1003 
     66 C          36.2161   28.9473    4.5777 C.2       11 UNK         0.5709 
     67 N          35.8590   29.5022    5.7291 N.am      11 UNK        -0.7358 
     68 O          37.3071   28.3941    4.4620 O.2       11 UNK        -0.4999 
     69 C69        34.1693   27.8934    3.4778 C.3       12 UNK        -0.0954 
     70 S70        33.1476   27.7689    1.9706 S.3       12 UNK        -0.2268 
     71 C71        33.2519   25.9791    1.6104 C.3       12 UNK         0.0203 
     72 H72        30.1831   21.5959   -3.6735 H         1 UNK         0.0888 
     73 H73        28.8855   22.4987   -4.4603 H         1 UNK         0.0888 
     74 H74        30.4461   23.2705   -4.1663 H         1 UNK         0.0888 
     75 H75        29.8729   21.4070   -1.4746 H         1 UNK         0.3017 
     76 H76        29.6756   23.4427    0.3456 H         1 UNK         0.0873 
     77 H77        29.0919   21.6828    2.0329 H         1 UNK         0.0745 
     78 H78        28.7588   20.5484    0.7504 H         1 UNK         0.0745 
     79 H79        32.6856   20.9386    2.7819 H         1 UNK         0.0705 
     80 H80        31.0502   20.7449    3.3603 H         1 UNK         0.0705 
     81 H81        32.9683   23.3202    1.3684 H         1 UNK         0.1334 
     82 H82        31.6345   26.5725    3.8305 H         1 UNK         0.1417 
     83 H83        30.3427   22.5902    4.6808 H         1 UNK         0.1562 
     84 H84        30.3091   26.2403    5.7008 H         1 UNK         0.0748 
     85 H85        30.5542   24.7084    6.4842 H         1 UNK         0.0748 
     86 H86        26.7954   24.9579    3.6960 H         1 UNK         0.0940 
     87 H87        28.3768   24.4165    3.2356 H         1 UNK         0.0940 
     88 H88        29.1574   26.8904    3.6755 H         1 UNK         0.0703 
     89 H89        28.0288   25.7180    1.3295 H         1 UNK         0.3081 
     90 H90        29.1888   28.2899   -0.8688 H         1 UNK         0.0719 
     91 H91        30.5130   25.5894   -0.3015 H         1 UNK         0.0809 
     92 H92        30.5545   26.4303   -1.8512 H         1 UNK         0.0809 
     93 H93        31.3100   27.1533   -0.4429 H         1 UNK         0.0809 
     94 H94        28.2426   25.7529   -1.5683 H         1 UNK         0.2990 
     95 H95        24.7711   26.7129   -1.7872 H         1 UNK         0.0690 
     96 H96        27.0624   26.1316   -3.7415 H         1 UNK         0.0788 
     97 H97        26.0792   27.5902   -3.7155 H         1 UNK         0.0788 
     98 H98        25.3405   26.0447   -4.1032 H         1 UNK         0.0788 
     99 H99        26.6379   24.3820   -1.9743 H         1 UNK         0.2993 
    100 H100       24.8500   22.6195    0.4836 H         1 UNK         0.0949 
    101 H101       24.8564   21.9163   -2.5045 H         1 UNK         0.0767 
    102 H102       24.6178   20.7839   -1.1720 H         1 UNK         0.0767 
    103 H103       23.4233   22.0293   -1.4919 H         1 UNK         0.0767 
    104 H104       26.9566   21.7110   -1.1414 H         1 UNK         0.3013 
    105 H105       26.4938   27.9422    1.8151 H         1 UNK         0.3121 
    106 H106       25.0912   29.3390    3.9558 H         1 UNK         0.0774 
    107 H107       23.9178   30.4568    2.1090 H         1 UNK         0.0815 
    108 H108       25.0700   29.8476    0.9339 H         1 UNK         0.0815 
    109 H109       23.9874   28.7342    1.7717 H         1 UNK         0.0815 
    110 H110       28.0950   29.8100    2.2759 H         1 UNK         0.2987 
    111 H111       28.3741   32.5840    3.3411 H         1 UNK         0.0949 
    112 H112       29.4826   31.4608    0.7082 H         1 UNK         0.0806 
    113 H113       28.1567   32.6172    0.8354 H         1 UNK         0.0806 
    114 H114       29.7728   33.0731    1.3500 H         1 UNK         0.0806 
    115 H115       28.8377   30.3058    4.8444 H         1 UNK         0.3010 
    116 H116       31.2564   29.0289    4.7270 H         1 UNK         0.0829 
    117 H117       30.9040   28.5578    7.1614 H         1 UNK         0.0813 
    118 H118       29.6929   29.8300    7.2413 H         1 UNK         0.0813 
    119 H119       29.4081   28.3948    6.2611 H         1 UNK         0.0813 
    120 H120       30.8220   32.3312    5.8031 H         1 UNK         0.3038 
    121 H121       33.2816   32.7165    7.1917 H         1 UNK         0.0769 
    122 H122       32.8239   35.1360    6.7481 H         1 UNK         0.0811 
    123 H123       31.3872   34.3167    7.3350 H         1 UNK         0.0811 
    124 H124       31.5472   34.7021    5.6202 H         1 UNK         0.0811 
    125 H125       32.5773   32.4766    3.7231 H         1 UNK         0.3204 
    126 H126       35.1819   33.5752    2.9055 H         1 UNK         0.0748 
    127 H127       34.4271   32.9594    0.6375 H         1 UNK         0.0771 
    128 H128       33.0285   32.1148    1.2830 H         1 UNK         0.0771 
    129 H129       33.1626   33.8643    1.4552 H         1 UNK         0.0771 
    130 H130       33.6561   30.4159    3.4993 H         1 UNK         0.2980 
    131 H131       35.8279   28.8174    2.4782 H         1 UNK         0.0545 
    132 H132       34.9216   29.8810    5.8430 H         1 UNK         0.3459 
    133 H133       36.4893   29.4700    6.5136 H         1 UNK         0.3459 
    134 H134       34.6490   26.9301    3.6609 H         1 UNK         0.0616 
    135 H135       33.5113   28.0669    4.3299 H         1 UNK         0.0616 
    136 H136       34.2954   25.6676    1.6745 H         1 UNK         0.0634 
    137 H137       32.9602   25.8273    0.5714 H         1 UNK         0.0634 
@<TRIPOS>BOND
     1    1    2 1    
     2    1   72 1    
     3    1   73 1    
     4    1   74 1    
     5    2    3 2    
     6    2    4 am   BACKBONE|DICT|INTERRES
     7    4    5 1    
     8    4   75 1    
     9    5    6 1    
    10    5   35 1    
    11    5   76 1    
    12    6    7 1    
    13    6   77 1    
    14    6   78 1    
    15    7    8 1    
    16    8    9 1    
    17    8   79 1    
    18    8   80 1    
    19    9   10 ar   
    20    9   14 ar   
    21   10   11 ar   
    22   10   81 1    
    23   11   12 ar   
    24   11   71 1    
    25   12   13 ar   
    26   12   82 1    
    27   13   14 ar   
    28   13   15 1    
    29   14   83 1    
    30   15   16 1    
    31   15   84 1    
    32   15   85 1    
    33   16   17 1    
    34   17   18 1    
    35   17   86 1    
    36   17   87 1    
    37   18   19 1    
    38   18   37 1    
    39   18   88 1    
    40   19   20 am   BACKBONE|DICT|INTERRES
    41   19   89 1    
    42   20   21 2    
    43   20   22 1    
    44   22   23 1    
    45   22   24 1    
    46   22   90 1    
    47   23   91 1    
    48   23   92 1    
    49   23   93 1    
    50   24   25 am   BACKBONE|DICT|INTERRES
    51   24   94 1    
    52   25   26 2    
    53   25   27 1    
    54   27   28 1    
    55   27   29 1    
    56   27   95 1    
    57   28   96 1    
    58   28   97 1    
    59   28   98 1    
    60   29   30 am   BACKBONE|DICT|INTERRES
    61   29   99 1    
    62   30   31 2    
    63   30   32 1    
    64   32   33 1    
    65   32   34 1    
    66   32  100 1    
    67   33  101 1    
    68   33  102 1    
    69   33  103 1    
    70   34   35 am   BACKBONE|DICT|INTERRES
    71   34  104 1    
    72   35   36 2    
    73   37   38 2    
    74   37   39 am   BACKBONE|DICT|INTERRES
    75   39   40 1    
    76   39  105 1    
    77   40   41 1    
    78   40   42 1    
    79   40  106 1    
    80   41  107 1    
    81   41  108 1    
    82   41  109 1    
    83   42   43 2    
    84   42   44 am   BACKBONE|DICT|INTERRES
    85   44   45 1    
    86   44  110 1    
    87   45   46 1    
    88   45   47 1    
    89   45  111 1    
    90   46  112 1    
    91   46  113 1    
    92   46  114 1    
    93   47   48 2    
    94   47   49 am   BACKBONE|DICT|INTERRES
    95   49   50 1    
    96   49  115 1    
    97   50   51 1    
    98   50   52 1    
    99   50  116 1    
   100   51  117 1    
   101   51  118 1    
   102   51  119 1    
   103   52   53 2    
   104   52   54 am   BACKBONE|DICT|INTERRES
   105   54   55 1    
   106   54  120 1    
   107   55   56 1    
   108   55   57 1    
   109   55  121 1    
   110   56  122 1    
   111   56  123 1    
   112   56  124 1    
   113   57   58 2    
   114   57   59 am   BACKBONE|DICT|INTERRES
   115   59   60 1    
   116   59  125 1    
   117   60   61 1    
   118   60   62 1    
   119   60  126 1    
   120   61  127 1    
   121   61  128 1    
   122   61  129 1    
   123   62   63 2    
   124   62   64 am   BACKBONE|DICT|INTERRES
   125   64   65 1    
   126   64  130 1    
   127   65   66 1    
   128   65   69 1    
   129   65  131 1    
   130   66   67 am   BACKBONE|DICT|INTERRES
   131   66   68 2    
   132   67  132 1    
   133   67  133 1    
   134   69   70 1    
   135   69  134 1    
   136   69  135 1    
   137   70   71 1    
   138   71  136 1    
   139   71  137 1    
@<TRIPOS>SUBSTRUCTURE
     1 UNK         1 GROUP             0       ****    0 ROOT    
