@<TRIPOS>MOLECULE
3R136
137   139    1
SMALL
USER_CHARGES


@<TRIPOS>ATOM
      1 CA         29.7544   23.7187    2.5186 C.3       0 UNK        -0.1979 
      2 C          30.0469   22.3251    3.0646 C.2       0 UNK         0.4864 
      3 O          30.7222   22.2243    4.0872 O.2       0 UNK        -0.5359 
      4 N          29.5857   21.2162    2.4627 N.am      1 UNK        -0.4318 
      5 CA         28.7535   21.0249    1.2643 C.3       1 UNK         0.0824 
      6 C6         29.5735   20.7674   -0.0358 C.3       12 UNK        -0.0944 
      7 S7         30.4315   22.1994   -0.7663 S.3       12 UNK        -0.2672 
      8 C8         32.1089   22.0821   -0.0537 C.3       12 UNK         0.0333 
      9 C9         32.6345   23.4608    0.3276 C.ar      12 UNK        -0.0807 
     10 C10        33.0951   23.7170    1.6251 C.ar      12 UNK        -0.0894 
     11 C11        33.5069   25.0036    1.9888 C.ar      12 UNK        -0.0804 
     12 C12        33.4444   26.0325    1.0467 C.ar      12 UNK        -0.0824 
     13 C13        32.9725   25.7985   -0.2454 C.ar      12 UNK        -0.0762 
     14 C14        32.6148   24.4981   -0.6105 C.ar      12 UNK        -0.0782 
     15 C15        32.8260   26.9693   -1.2135 C.3       12 UNK         0.0230 
     16 S16        31.3185   26.9133   -2.2476 S.3       12 UNK        -0.2608 
     17 C17        29.9743   26.6736   -1.0332 C.3       12 UNK        -0.0989 
     18 CA         29.4511   28.0082   -0.4368 C.3       5 UNK         0.0716 
     19 N          27.9955   28.1283   -0.5430 N.am      5 UNK        -0.4135 
     20 C          27.3077   29.2657   -0.3692 C.2       4 UNK         0.5031 
     21 O          27.8277   30.3566   -0.1365 O.2       4 UNK        -0.5229 
     22 CA         25.7746   29.1530   -0.4155 C.3       4 UNK         0.0329 
     23 CB         25.2714   29.1594   -1.8677 C.3       4 UNK        -0.2001 
     24 N          25.2822   27.9571    0.2739 N.am      4 UNK        -0.4303 
     25 C          25.4120   27.7447    1.5913 C.2       3 UNK         0.5044 
     26 O          25.8973   28.5659    2.3684 O.2       3 UNK        -0.5152 
     27 CA         24.9647   26.3747    2.1293 C.3       3 UNK         0.0319 
     28 CB         23.4907   26.4245    2.5607 C.3       3 UNK        -0.2001 
     29 N          25.1630   25.2621    1.1929 N.am      3 UNK        -0.4354 
     30 C          26.3446   24.8654    0.6992 C.2       2 UNK         0.4964 
     31 O          27.4109   25.4515    0.9057 O.2       2 UNK        -0.5047 
     32 CA         26.3142   23.6426   -0.2331 C.3       2 UNK         0.0288 
     33 CB         26.3986   24.0908   -1.7011 C.3       2 UNK        -0.2113 
     34 N          27.4005   22.7000    0.0420 N.am      2 UNK        -0.4145 
     35 C          27.5325   21.9712    1.1585 C.2       1 UNK         0.5006 
     36 O          26.7224   22.0003    2.0877 O.2       1 UNK        -0.5103 
     37 C          29.9105   28.2036    1.0211 C.2       5 UNK         0.5055 
     38 O          30.8811   28.9258    1.2554 O.2       5 UNK        -0.5220 
     39 N          29.1690   27.6037    1.9687 N.am      6 UNK        -0.4450 
     40 CA         29.3721   27.7558    3.4127 C.3       6 UNK         0.0367 
     41 CB         28.3729   26.8911    4.1966 C.3       6 UNK        -0.1929 
     42 C          29.2845   29.2130    3.8845 C.2       6 UNK         0.5070 
     43 O          30.1215   29.6384    4.6804 O.2       6 UNK        -0.5237 
     44 N          28.2873   29.9471    3.3737 N.am      7 UNK        -0.4739 
     45 CA         28.0955   31.3743    3.6227 C.3       7 UNK         0.0276 
     46 CB         26.7007   31.7982    3.1354 C.3       7 UNK        -0.1927 
     47 C          29.1879   32.2378    2.9729 C.2       7 UNK         0.5013 
     48 O          29.7042   33.1411    3.6307 O.2       7 UNK        -0.5193 
     49 N          29.5253   31.9447    1.7076 N.am      8 UNK        -0.4253 
     50 CA         30.5310   32.6702    0.9257 C.3       8 UNK         0.0242 
     51 CB         30.4909   32.2056   -0.5392 C.3       8 UNK        -0.2000 
     52 C          31.9535   32.5443    1.4930 C.2       8 UNK         0.4948 
     53 O          32.6472   33.5555    1.6098 O.2       8 UNK        -0.5275 
     54 N          32.3614   31.3159    1.8383 N.am      9 UNK        -0.4246 
     55 CA         33.6788   31.0244    2.4112 C.3       9 UNK         0.0261 
     56 CB         34.0349   29.5635    2.1115 C.3       9 UNK        -0.1959 
     57 C          33.7586   31.2805    3.9252 C.2       9 UNK         0.5033 
     58 O          34.8671   31.3403    4.4585 O.2       9 UNK        -0.5390 
     59 N          32.5982   31.3867    4.5889 N.am      10 UNK        -0.4215 
     60 CA         32.4015   31.5023    6.0387 C.3       10 UNK         0.0240 
     61 CB         33.0448   32.7900    6.5976 C.3       10 UNK        -0.1982 
     62 C          32.8076   30.2352    6.8218 C.2       10 UNK         0.4970 
     63 O          33.0369   30.3224    8.0296 O.2       10 UNK        -0.4916 
     64 N          32.8622   29.0800    6.1423 N.am      11 UNK        -0.4279 
     65 CA         33.0561   27.7579    6.7586 C.3       11 UNK         0.1003 
     66 C          31.7626   27.1658    7.3921 C.2       11 UNK         0.5709 
     67 N          30.5830   27.7237    7.1386 N.am      11 UNK        -0.7358 
     68 O          31.8360   26.1983    8.1459 O.2       11 UNK        -0.4999 
     69 C69        33.7693   26.7602    5.8035 C.3       12 UNK        -0.0954 
     70 S70        32.8345   26.3804    4.2857 S.3       12 UNK        -0.2268 
     71 C71        34.0021   25.3048    3.3973 C.3       12 UNK         0.0203 
     72 H72        30.4116   24.4578    2.9772 H         1 UNK         0.0888 
     73 H73        29.8963   23.7840    1.4438 H         1 UNK         0.0888 
     74 H74        28.7278   23.9931    2.7475 H         1 UNK         0.0888 
     75 H75        29.8132   20.3459    2.9220 H         1 UNK         0.3017 
     76 H76        28.2757   20.0646    1.4664 H         1 UNK         0.0873 
     77 H77        30.3046   19.9772    0.1428 H         1 UNK         0.0745 
     78 H78        28.9123   20.3629   -0.8045 H         1 UNK         0.0745 
     79 H79        32.7795   21.6231   -0.7811 H         1 UNK         0.0705 
     80 H80        32.0963   21.4272    0.8185 H         1 UNK         0.0705 
     81 H81        33.1132   22.9223    2.3586 H         1 UNK         0.1334 
     82 H82        33.7424   27.0272    1.3347 H         1 UNK         0.1417 
     83 H83        32.2547   24.3030   -1.6114 H         1 UNK         0.1562 
     84 H84        33.6995   26.9971   -1.8657 H         1 UNK         0.0748 
     85 H85        32.8182   27.9132   -0.6658 H         1 UNK         0.0748 
     86 H86        30.2694   25.9578   -0.2635 H         1 UNK         0.0940 
     87 H87        29.1783   26.1635   -1.5768 H         1 UNK         0.0940 
     88 H88        29.8673   28.8385   -1.0112 H         1 UNK         0.0703 
     89 H89        27.4815   27.2669   -0.6557 H         1 UNK         0.3081 
     90 H90        25.3632   30.0279    0.0927 H         1 UNK         0.0719 
     91 H91        25.6262   28.2922   -2.4262 H         1 UNK         0.0809 
     92 H92        24.1820   29.1633   -1.9096 H         1 UNK         0.0809 
     93 H93        25.6169   30.0501   -2.3946 H         1 UNK         0.0809 
     94 H94        24.8550   27.2374   -0.2905 H         1 UNK         0.2990 
     95 H95        25.5670   26.1604    3.0137 H         1 UNK         0.0690 
     96 H96        22.8260   26.5975    1.7133 H         1 UNK         0.0788 
     97 H97        23.3213   27.2296    3.2774 H         1 UNK         0.0788 
     98 H98        23.1862   25.4958    3.0437 H         1 UNK         0.0788 
     99 H99        24.3374   24.7322    0.9519 H         1 UNK         0.2993 
    100 H100       25.3713   23.1110   -0.0869 H         1 UNK         0.0949 
    101 H101       27.3446   24.5878   -1.9180 H         1 UNK         0.0767 
    102 H102       26.3052   23.2422   -2.3793 H         1 UNK         0.0767 
    103 H103       25.5972   24.7889   -1.9471 H         1 UNK         0.0767 
    104 H104       28.1479   22.6529   -0.6386 H         1 UNK         0.3013 
    105 H105       28.4175   26.9880    1.6722 H         1 UNK         0.3121 
    106 H106       30.3757   27.3986    3.6286 H         1 UNK         0.0774 
    107 H107       28.6274   26.8740    5.2563 H         1 UNK         0.0815 
    108 H108       27.3559   27.2730    4.1206 H         1 UNK         0.0815 
    109 H109       28.3678   25.8609    3.8533 H         1 UNK         0.0815 
    110 H110       27.5971   29.4865    2.7870 H         1 UNK         0.2987 
    111 H111       28.1435   31.5362    4.7020 H         1 UNK         0.0949 
    112 H112       26.5771   31.6295    2.0649 H         1 UNK         0.0806 
    113 H113       25.9168   31.2432    3.6512 H         1 UNK         0.0806 
    114 H114       26.5260   32.8584    3.3231 H         1 UNK         0.0806 
    115 H115       29.0181   31.2086    1.2243 H         1 UNK         0.3010 
    116 H116       30.2618   33.7284    0.9497 H         1 UNK         0.0829 
    117 H117       31.2277   32.7403   -1.1401 H         1 UNK         0.0813 
    118 H118       30.7049   31.1403   -0.6309 H         1 UNK         0.0813 
    119 H119       29.5140   32.3899   -0.9865 H         1 UNK         0.0813 
    120 H120       31.7438   30.5208    1.6749 H         1 UNK         0.3038 
    121 H121       34.4251   31.6606    1.9304 H         1 UNK         0.0769 
    122 H122       35.0233   29.3088    2.4966 H         1 UNK         0.0811 
    123 H123       34.0440   29.3744    1.0383 H         1 UNK         0.0811 
    124 H124       33.3177   28.8837    2.5724 H         1 UNK         0.0811 
    125 H125       31.7442   31.2885    4.0545 H         1 UNK         0.3204 
    126 H126       31.3236   31.5976    6.1775 H         1 UNK         0.0748 
    127 H127       32.7436   32.9603    7.6319 H         1 UNK         0.0771 
    128 H128       34.1338   32.7412    6.5826 H         1 UNK         0.0771 
    129 H129       32.7389   33.6656    6.0248 H         1 UNK         0.0771 
    130 H130       32.6025   29.0803    5.1670 H         1 UNK         0.2980 
    131 H131       33.7383   27.8959    7.5995 H         1 UNK         0.0545 
    132 H132       30.5108   28.5006    6.4949 H         1 UNK         0.3459 
    133 H133       29.7572   27.3435    7.5713 H         1 UNK         0.3459 
    134 H134       34.7384   27.1682    5.5125 H         1 UNK         0.0616 
    135 H135       33.9831   25.8238    6.3220 H         1 UNK         0.0616 
    136 H136       34.9752   25.7947    3.3392 H         1 UNK         0.0634 
    137 H137       34.1450   24.3846    3.9658 H         1 UNK         0.0634 
@<TRIPOS>BOND
     1    1    2 1    
     2    1   72 1    
     3    1   73 1    
     4    1   74 1    
     5    2    3 2    
     6    2    4 am   BACKBONE|DICT|INTERRES
     7    4    5 1    
     8    4   75 1    
     9    5    6 1    
    10    5   35 1    
    11    5   76 1    
    12    6    7 1    
    13    6   77 1    
    14    6   78 1    
    15    7    8 1    
    16    8    9 1    
    17    8   79 1    
    18    8   80 1    
    19    9   10 ar   
    20    9   14 ar   
    21   10   11 ar   
    22   10   81 1    
    23   11   12 ar   
    24   11   71 1    
    25   12   13 ar   
    26   12   82 1    
    27   13   14 ar   
    28   13   15 1    
    29   14   83 1    
    30   15   16 1    
    31   15   84 1    
    32   15   85 1    
    33   16   17 1    
    34   17   18 1    
    35   17   86 1    
    36   17   87 1    
    37   18   19 1    
    38   18   37 1    
    39   18   88 1    
    40   19   20 am   BACKBONE|DICT|INTERRES
    41   19   89 1    
    42   20   21 2    
    43   20   22 1    
    44   22   23 1    
    45   22   24 1    
    46   22   90 1    
    47   23   91 1    
    48   23   92 1    
    49   23   93 1    
    50   24   25 am   BACKBONE|DICT|INTERRES
    51   24   94 1    
    52   25   26 2    
    53   25   27 1    
    54   27   28 1    
    55   27   29 1    
    56   27   95 1    
    57   28   96 1    
    58   28   97 1    
    59   28   98 1    
    60   29   30 am   BACKBONE|DICT|INTERRES
    61   29   99 1    
    62   30   31 2    
    63   30   32 1    
    64   32   33 1    
    65   32   34 1    
    66   32  100 1    
    67   33  101 1    
    68   33  102 1    
    69   33  103 1    
    70   34   35 am   BACKBONE|DICT|INTERRES
    71   34  104 1    
    72   35   36 2    
    73   37   38 2    
    74   37   39 am   BACKBONE|DICT|INTERRES
    75   39   40 1    
    76   39  105 1    
    77   40   41 1    
    78   40   42 1    
    79   40  106 1    
    80   41  107 1    
    81   41  108 1    
    82   41  109 1    
    83   42   43 2    
    84   42   44 am   BACKBONE|DICT|INTERRES
    85   44   45 1    
    86   44  110 1    
    87   45   46 1    
    88   45   47 1    
    89   45  111 1    
    90   46  112 1    
    91   46  113 1    
    92   46  114 1    
    93   47   48 2    
    94   47   49 am   BACKBONE|DICT|INTERRES
    95   49   50 1    
    96   49  115 1    
    97   50   51 1    
    98   50   52 1    
    99   50  116 1    
   100   51  117 1    
   101   51  118 1    
   102   51  119 1    
   103   52   53 2    
   104   52   54 am   BACKBONE|DICT|INTERRES
   105   54   55 1    
   106   54  120 1    
   107   55   56 1    
   108   55   57 1    
   109   55  121 1    
   110   56  122 1    
   111   56  123 1    
   112   56  124 1    
   113   57   58 2    
   114   57   59 am   BACKBONE|DICT|INTERRES
   115   59   60 1    
   116   59  125 1    
   117   60   61 1    
   118   60   62 1    
   119   60  126 1    
   120   61  127 1    
   121   61  128 1    
   122   61  129 1    
   123   62   63 2    
   124   62   64 am   BACKBONE|DICT|INTERRES
   125   64   65 1    
   126   64  130 1    
   127   65   66 1    
   128   65   69 1    
   129   65  131 1    
   130   66   67 am   BACKBONE|DICT|INTERRES
   131   66   68 2    
   132   67  132 1    
   133   67  133 1    
   134   69   70 1    
   135   69  134 1    
   136   69  135 1    
   137   70   71 1    
   138   71  136 1    
   139   71  137 1    
@<TRIPOS>SUBSTRUCTURE
     1 UNK         1 GROUP             0       ****    0 ROOT    
