@<TRIPOS>MOLECULE
3R136
137   139    1
SMALL
USER_CHARGES


@<TRIPOS>ATOM
      1 CA         24.5551   23.8723    4.3841 C.3       0 UNK        -0.1979 
      2 C          25.6039   23.8489    3.2828 C.2       0 UNK         0.4864 
      3 O          25.7510   24.8389    2.5640 O.2       0 UNK        -0.5359 
      4 N          26.3276   22.7268    3.1462 N.am      1 UNK        -0.4318 
      5 CA         27.3899   22.4903    2.1582 C.3       1 UNK         0.0824 
      6 C6         28.6594   23.3408    2.4283 C.3       12 UNK        -0.0944 
      7 S7         29.4757   22.9190    4.0006 S.3       12 UNK        -0.2672 
      8 C8         31.0875   22.3136    3.4095 C.3       12 UNK         0.0333 
      9 C9         31.9969   23.4483    2.9529 C.ar      12 UNK        -0.0807 
     10 C10        32.6945   24.2012    3.9018 C.ar      12 UNK        -0.0894 
     11 C11        33.5870   25.2032    3.5096 C.ar      12 UNK        -0.0804 
     12 C12        33.7575   25.4587    2.1419 C.ar      12 UNK        -0.0824 
     13 C13        33.0681   24.7157    1.1789 C.ar      12 UNK        -0.0762 
     14 C14        32.1835   23.7139    1.5913 C.ar      12 UNK        -0.0782 
     15 C15        33.3583   24.9350   -0.3022 C.3       12 UNK         0.0230 
     16 S16        33.0864   26.6554   -0.8451 S.3       12 UNK        -0.2608 
     17 C17        31.3736   26.6148   -1.4682 C.3       12 UNK        -0.0989 
     18 CA         30.4296   27.4981   -0.6207 C.3       5 UNK         0.0716 
     19 N          29.2252   27.8727   -1.3472 N.am      5 UNK        -0.4135 
     20 C          28.9238   29.0964   -1.7943 C.2       4 UNK         0.5031 
     21 O          29.7138   30.0405   -1.8094 O.2       4 UNK        -0.5229 
     22 CA         27.4834   29.3111   -2.2955 C.3       4 UNK         0.0329 
     23 CB         27.4212   29.1837   -3.8258 C.3       4 UNK        -0.2001 
     24 N          26.5284   28.3738   -1.6970 N.am      4 UNK        -0.4303 
     25 C          26.1203   28.3840   -0.4213 C.2       3 UNK         0.5044 
     26 O          26.4341   29.2559    0.3883 O.2       3 UNK        -0.5152 
     27 CA         25.2430   27.2055    0.0398 C.3       3 UNK         0.0319 
     28 CB         23.8087   27.3125   -0.5137 C.3       3 UNK        -0.2001 
     29 N          25.8360   25.8847   -0.2213 N.am      3 UNK        -0.4354 
     30 C          26.0983   25.2937   -1.4002 C.2       2 UNK         0.4964 
     31 O          25.8063   25.7933   -2.4879 O.2       2 UNK        -0.5047 
     32 CA         26.8491   23.9493   -1.3871 C.3       2 UNK         0.0288 
     33 CB         28.0549   23.9825   -2.3446 C.3       2 UNK        -0.2113 
     34 N          27.3308   23.6098   -0.0479 N.am      2 UNK        -0.4145 
     35 C          26.8300   22.6353    0.7241 C.2       1 UNK         0.5006 
     36 O          25.9403   21.8636    0.3573 O.2       1 UNK        -0.5103 
     37 C          29.9259   26.7717    0.6292 C.2       5 UNK         0.5055 
     38 O          29.1626   25.8109    0.4946 O.2       5 UNK        -0.5220 
     39 N          30.3212   27.2728    1.8001 N.am      6 UNK        -0.4450 
     40 CA         29.8995   26.8499    3.1284 C.3       6 UNK         0.0367 
     41 CB         28.3900   27.1138    3.3288 C.3       6 UNK        -0.1929 
     42 C          30.6919   27.6871    4.1325 C.2       6 UNK         0.5070 
     43 O          31.1986   28.7523    3.7680 O.2       6 UNK        -0.5237 
     44 N          30.7105   27.2624    5.4016 N.am      7 UNK        -0.4739 
     45 CA         31.2369   28.0614    6.5179 C.3       7 UNK         0.0276 
     46 CB         31.2370   27.2182    7.8016 C.3       7 UNK        -0.1927 
     47 C          30.4601   29.3776    6.7230 C.2       7 UNK         0.5013 
     48 O          31.0642   30.3980    7.0522 O.2       7 UNK        -0.5193 
     49 N          29.1490   29.3460    6.4389 N.am      8 UNK        -0.4253 
     50 CA         28.2597   30.5112    6.3862 C.3       8 UNK         0.0242 
     51 CB         26.8060   30.0252    6.2671 C.3       8 UNK        -0.2000 
     52 C          28.5891   31.4965    5.2459 C.2       8 UNK         0.4948 
     53 O          28.2257   32.6681    5.3465 O.2       8 UNK        -0.5275 
     54 N          29.2871   31.0212    4.2044 N.am      9 UNK        -0.4246 
     55 CA         29.8082   31.8141    3.0883 C.3       9 UNK         0.0261 
     56 CB         29.5137   31.0727    1.7700 C.3       9 UNK        -0.1959 
     57 C          31.3145   32.0962    3.2657 C.2       9 UNK         0.5033 
     58 O          32.0129   32.3186    2.2746 O.2       9 UNK        -0.5390 
     59 N          31.7993   32.0497    4.5182 N.am      10 UNK        -0.4215 
     60 CA         33.1824   32.2713    4.9575 C.3       10 UNK         0.0240 
     61 CB         33.5931   33.7430    4.7361 C.3       10 UNK        -0.1982 
     62 C          34.1993   31.2767    4.3618 C.2       10 UNK         0.4970 
     63 O          35.3857   31.6009    4.2847 O.2       10 UNK        -0.4916 
     64 N          33.7276   30.0882    3.9586 N.am      11 UNK        -0.4279 
     65 CA         34.5079   29.0352    3.2955 C.3       11 UNK         0.1003 
     66 C          34.9814   29.3985    1.8542 C.2       11 UNK         0.5709 
     67 N          34.3903   30.3934    1.1998 N.am      11 UNK        -0.7358 
     68 O          35.8747   28.7583    1.3059 O.2       11 UNK        -0.4999 
     69 C69        35.6244   28.4714    4.2266 C.3       12 UNK        -0.0954 
     70 S70        35.9392   26.6864    4.0367 S.3       12 UNK        -0.2268 
     71 C71        34.3531   25.9666    4.5923 C.3       12 UNK         0.0203 
     72 H72        23.5666   24.0358    3.9558 H         1 UNK         0.0888 
     73 H73        24.5324   22.9392    4.9467 H         1 UNK         0.0888 
     74 H74        24.7637   24.6839    5.0806 H         1 UNK         0.0888 
     75 H75        26.1355   21.9455    3.7570 H         1 UNK         0.3017 
     76 H76        27.6717   21.4404    2.2527 H         1 UNK         0.0873 
     77 H77        28.4026   24.3963    2.4678 H         1 UNK         0.0745 
     78 H78        29.3793   23.2281    1.6176 H         1 UNK         0.0745 
     79 H79        30.9367   21.5878    2.6088 H         1 UNK         0.0705 
     80 H80        31.5728   21.7688    4.2207 H         1 UNK         0.0705 
     81 H81        32.5547   23.9894    4.9534 H         1 UNK         0.1334 
     82 H82        34.4484   26.2197    1.8081 H         1 UNK         0.1417 
     83 H83        31.6646   23.1197    0.8518 H         1 UNK         0.1562 
     84 H84        32.7837   24.2487   -0.9257 H         1 UNK         0.0748 
     85 H85        34.4061   24.6880   -0.4788 H         1 UNK         0.0748 
     86 H86        31.0085   25.5895   -1.5502 H         1 UNK         0.0940 
     87 H87        31.4077   26.9947   -2.4906 H         1 UNK         0.0940 
     88 H88        30.9609   28.4031   -0.3156 H         1 UNK         0.0703 
     89 H89        28.4939   27.1763   -1.3263 H         1 UNK         0.3081 
     90 H90        27.1852   30.3248   -2.0197 H         1 UNK         0.0719 
     91 H91        28.1086   29.8829   -4.3042 H         1 UNK         0.0809 
     92 H92        27.6904   28.1804   -4.1591 H         1 UNK         0.0809 
     93 H93        26.4220   29.4051   -4.2015 H         1 UNK         0.0809 
     94 H94        26.2230   27.5891   -2.2690 H         1 UNK         0.2990 
     95 H95        25.1749   27.2772    1.1268 H         1 UNK         0.0690 
     96 H96        23.1752   26.5169   -0.1215 H         1 UNK         0.0788 
     97 H97        23.7794   27.2577   -1.6021 H         1 UNK         0.0788 
     98 H98        23.3530   28.2609   -0.2263 H         1 UNK         0.0788 
     99 H99        26.0918   25.3824    0.6247 H         1 UNK         0.2993 
    100 H100       26.1480   23.1943   -1.7487 H         1 UNK         0.0949 
    101 H101       27.7389   24.1696   -3.3718 H         1 UNK         0.0767 
    102 H102       28.7639   24.7643   -2.0731 H         1 UNK         0.0767 
    103 H103       28.5884   23.0318   -2.3412 H         1 UNK         0.0767 
    104 H104       28.0352   24.2400    0.3317 H         1 UNK         0.3013 
    105 H105       30.9661   28.0536    1.8276 H         1 UNK         0.3121 
    106 H106       30.1407   25.7952    3.2620 H         1 UNK         0.0774 
    107 H107       27.7793   26.6183    2.5758 H         1 UNK         0.0815 
    108 H108       28.0505   26.7467    4.2976 H         1 UNK         0.0815 
    109 H109       28.1558   28.1781    3.2772 H         1 UNK         0.0815 
    110 H110       30.2790   26.3782    5.6327 H         1 UNK         0.2987 
    111 H111       32.2697   28.3291    6.2838 H         1 UNK         0.0949 
    112 H112       31.8534   26.3260    7.6891 H         1 UNK         0.0806 
    113 H113       31.6423   27.7861    8.6404 H         1 UNK         0.0806 
    114 H114       30.2313   26.8999    8.0789 H         1 UNK         0.0806 
    115 H115       28.7430   28.4561    6.1905 H         1 UNK         0.3010 
    116 H116       28.3658   31.0556    7.3271 H         1 UNK         0.0829 
    117 H117       26.5281   29.3910    7.1093 H         1 UNK         0.0813 
    118 H118       26.1126   30.8676    6.2572 H         1 UNK         0.0813 
    119 H119       26.6421   29.4586    5.3494 H         1 UNK         0.0813 
    120 H120       29.6031   30.0596    4.2283 H         1 UNK         0.3038 
    121 H121       29.3054   32.7823    3.0488 H         1 UNK         0.0769 
    122 H122       29.7976   31.6761    0.9067 H         1 UNK         0.0811 
    123 H123       28.4522   30.8461    1.6677 H         1 UNK         0.0811 
    124 H124       30.0632   30.1350    1.7018 H         1 UNK         0.0811 
    125 H125       31.1574   31.7997    5.2605 H         1 UNK         0.3204 
    126 H126       33.1864   32.0874    6.0329 H         1 UNK         0.0748 
    127 H127       34.5597   33.9556    5.1945 H         1 UNK         0.0771 
    128 H128       33.6764   33.9840    3.6758 H         1 UNK         0.0771 
    129 H129       32.8702   34.4276    5.1799 H         1 UNK         0.0771 
    130 H130       32.7324   29.8973    4.0240 H         1 UNK         0.2980 
    131 H131       33.7766   28.2460    3.1315 H         1 UNK         0.0545 
    132 H132       34.6947   30.6140    0.2655 H         1 UNK         0.3459 
    133 H133       33.6549   30.9380    1.6325 H         1 UNK         0.3459 
    134 H134       36.5610   29.0120    4.0803 H         1 UNK         0.0616 
    135 H135       35.3604   28.6260    5.2741 H         1 UNK         0.0616 
    136 H136       34.5763   25.2923    5.4203 H         1 UNK         0.0634 
    137 H137       33.7062   26.7424    5.0019 H         1 UNK         0.0634 
@<TRIPOS>BOND
     1    1    2 1    
     2    1   72 1    
     3    1   73 1    
     4    1   74 1    
     5    2    3 2    
     6    2    4 am   BACKBONE|DICT|INTERRES
     7    4    5 1    
     8    4   75 1    
     9    5    6 1    
    10    5   35 1    
    11    5   76 1    
    12    6    7 1    
    13    6   77 1    
    14    6   78 1    
    15    7    8 1    
    16    8    9 1    
    17    8   79 1    
    18    8   80 1    
    19    9   10 ar   
    20    9   14 ar   
    21   10   11 ar   
    22   10   81 1    
    23   11   12 ar   
    24   11   71 1    
    25   12   13 ar   
    26   12   82 1    
    27   13   14 ar   
    28   13   15 1    
    29   14   83 1    
    30   15   16 1    
    31   15   84 1    
    32   15   85 1    
    33   16   17 1    
    34   17   18 1    
    35   17   86 1    
    36   17   87 1    
    37   18   19 1    
    38   18   37 1    
    39   18   88 1    
    40   19   20 am   BACKBONE|DICT|INTERRES
    41   19   89 1    
    42   20   21 2    
    43   20   22 1    
    44   22   23 1    
    45   22   24 1    
    46   22   90 1    
    47   23   91 1    
    48   23   92 1    
    49   23   93 1    
    50   24   25 am   BACKBONE|DICT|INTERRES
    51   24   94 1    
    52   25   26 2    
    53   25   27 1    
    54   27   28 1    
    55   27   29 1    
    56   27   95 1    
    57   28   96 1    
    58   28   97 1    
    59   28   98 1    
    60   29   30 am   BACKBONE|DICT|INTERRES
    61   29   99 1    
    62   30   31 2    
    63   30   32 1    
    64   32   33 1    
    65   32   34 1    
    66   32  100 1    
    67   33  101 1    
    68   33  102 1    
    69   33  103 1    
    70   34   35 am   BACKBONE|DICT|INTERRES
    71   34  104 1    
    72   35   36 2    
    73   37   38 2    
    74   37   39 am   BACKBONE|DICT|INTERRES
    75   39   40 1    
    76   39  105 1    
    77   40   41 1    
    78   40   42 1    
    79   40  106 1    
    80   41  107 1    
    81   41  108 1    
    82   41  109 1    
    83   42   43 2    
    84   42   44 am   BACKBONE|DICT|INTERRES
    85   44   45 1    
    86   44  110 1    
    87   45   46 1    
    88   45   47 1    
    89   45  111 1    
    90   46  112 1    
    91   46  113 1    
    92   46  114 1    
    93   47   48 2    
    94   47   49 am   BACKBONE|DICT|INTERRES
    95   49   50 1    
    96   49  115 1    
    97   50   51 1    
    98   50   52 1    
    99   50  116 1    
   100   51  117 1    
   101   51  118 1    
   102   51  119 1    
   103   52   53 2    
   104   52   54 am   BACKBONE|DICT|INTERRES
   105   54   55 1    
   106   54  120 1    
   107   55   56 1    
   108   55   57 1    
   109   55  121 1    
   110   56  122 1    
   111   56  123 1    
   112   56  124 1    
   113   57   58 2    
   114   57   59 am   BACKBONE|DICT|INTERRES
   115   59   60 1    
   116   59  125 1    
   117   60   61 1    
   118   60   62 1    
   119   60  126 1    
   120   61  127 1    
   121   61  128 1    
   122   61  129 1    
   123   62   63 2    
   124   62   64 am   BACKBONE|DICT|INTERRES
   125   64   65 1    
   126   64  130 1    
   127   65   66 1    
   128   65   69 1    
   129   65  131 1    
   130   66   67 am   BACKBONE|DICT|INTERRES
   131   66   68 2    
   132   67  132 1    
   133   67  133 1    
   134   69   70 1    
   135   69  134 1    
   136   69  135 1    
   137   70   71 1    
   138   71  136 1    
   139   71  137 1    
@<TRIPOS>SUBSTRUCTURE
     1 UNK         1 GROUP             0       ****    0 ROOT    
