@<TRIPOS>MOLECULE
3R136
137   139    1
SMALL
USER_CHARGES


@<TRIPOS>ATOM
      1 CA         28.1805   19.1469   -1.8138 C.3       0 UNK        -0.1979 
      2 C          27.8822   19.8204   -0.4823 C.2       0 UNK         0.4864 
      3 O          27.0137   19.3522    0.2546 O.2       0 UNK        -0.5359 
      4 N          28.5956   20.9148   -0.1761 N.am      1 UNK        -0.4318 
      5 CA         28.4640   21.7191    1.0488 C.3       1 UNK         0.0824 
      6 C6         28.8722   20.9342    2.3271 C.3       12 UNK        -0.0944 
      7 S7         29.5786   21.9941    3.6369 S.3       12 UNK        -0.2672 
      8 C8         31.3710   21.8448    3.3479 C.3       12 UNK         0.0333 
      9 C9         31.9286   23.0394    2.5850 C.ar      12 UNK        -0.0807 
     10 C10        32.5503   24.0815    3.2785 C.ar      12 UNK        -0.0894 
     11 C11        33.1310   25.1494    2.5889 C.ar      12 UNK        -0.0804 
     12 C12        33.0514   25.1914    1.1924 C.ar      12 UNK        -0.0824 
     13 C13        32.4260   24.1578    0.4828 C.ar      12 UNK        -0.0762 
     14 C14        31.8797   23.0799    1.1885 C.ar      12 UNK        -0.0782 
     15 C15        32.4212   24.1333   -1.0448 C.3       12 UNK         0.0230 
     16 S16        32.0044   25.7260   -1.8301 S.3       12 UNK        -0.2608 
     17 C17        30.2041   25.8453   -1.5590 C.3       12 UNK        -0.0989 
     18 CA         29.7861   27.2771   -1.1357 C.3       5 UNK         0.0716 
     19 N          28.3723   27.5427   -1.4091 N.am      5 UNK        -0.4135 
     20 C          27.8868   28.6992   -1.8841 C.2       4 UNK         0.5031 
     21 O          28.5888   29.6485   -2.2342 O.2       4 UNK        -0.5229 
     22 CA         26.3545   28.8292   -1.9914 C.3       4 UNK         0.0329 
     23 CB         25.8718   28.3709   -3.3771 C.3       4 UNK        -0.2001 
     24 N          25.6406   28.0763   -0.9581 N.am      4 UNK        -0.4303 
     25 C          25.6513   28.3777    0.3483 C.2       3 UNK         0.5044 
     26 O          26.1495   29.4052    0.8036 O.2       3 UNK        -0.5152 
     27 CA         25.0217   27.3599    1.3205 C.3       3 UNK         0.0319 
     28 CB         23.6596   27.8685    1.8192 C.3       3 UNK        -0.2001 
     29 N          24.8603   25.9976    0.7915 N.am      3 UNK        -0.4354 
     30 C          25.8495   25.2132    0.3436 C.2       2 UNK         0.4964 
     31 O          27.0222   25.5826    0.2305 O.2       2 UNK        -0.5047 
     32 CA         25.4547   23.8026   -0.1177 C.3       2 UNK         0.0288 
     33 CB         24.9769   23.8335   -1.5788 C.3       2 UNK        -0.2113 
     34 N          26.5986   22.8985   -0.0126 N.am      2 UNK        -0.4145 
     35 C          27.0977   22.4378    1.1437 C.2       1 UNK         0.5006 
     36 O          26.5332   22.5834    2.2303 O.2       1 UNK        -0.5103 
     37 C          30.0723   27.5395    0.3511 C.2       5 UNK         0.5055 
     38 O          30.9738   28.3137    0.6765 O.2       5 UNK        -0.5220 
     39 N          29.2626   26.9311    1.2283 N.am      6 UNK        -0.4450 
     40 CA         29.3461   27.0337    2.6838 C.3       6 UNK         0.0367 
     41 CB         28.7163   25.7731    3.3017 C.3       6 UNK        -0.1929 
     42 C          28.7172   28.3374    3.2123 C.2       6 UNK         0.5070 
     43 O          27.9170   28.3063    4.1495 O.2       6 UNK        -0.5237 
     44 N          29.0798   29.4712    2.6015 N.am      7 UNK        -0.4739 
     45 CA         28.5473   30.8053    2.8817 C.3       7 UNK         0.0276 
     46 CB         28.6880   31.6765    1.6189 C.3       7 UNK        -0.1927 
     47 C          29.1953   31.4363    4.1283 C.2       7 UNK         0.5013 
     48 O          29.7893   32.5137    4.0372 O.2       7 UNK        -0.5193 
     49 N          29.0718   30.7394    5.2679 N.am      8 UNK        -0.4253 
     50 CA         29.5198   31.1134    6.6141 C.3       8 UNK         0.0242 
     51 CB         28.5488   32.1534    7.2177 C.3       8 UNK        -0.2000 
     52 C          30.9964   31.5520    6.6428 C.2       8 UNK         0.4948 
     53 O          31.8816   30.7021    6.5337 O.2       8 UNK        -0.5275 
     54 N          31.2311   32.8685    6.7447 N.am      9 UNK        -0.4246 
     55 CA         32.5433   33.5206    6.7483 C.3       9 UNK         0.0261 
     56 CB         32.3526   35.0330    6.9467 C.3       9 UNK        -0.1959 
     57 C          33.4045   33.2478    5.5012 C.2       9 UNK         0.5033 
     58 O          34.6277   33.3614    5.5950 O.2       9 UNK        -0.5390 
     59 N          32.7840   32.8527    4.3774 N.am      10 UNK        -0.4215 
     60 CA         33.4727   32.4136    3.1574 C.3       10 UNK         0.0240 
     61 CB         32.4396   32.1255    2.0596 C.3       10 UNK        -0.1982 
     62 C          34.3800   31.1847    3.3605 C.2       10 UNK         0.4970 
     63 O          35.3574   31.0397    2.6251 O.2       10 UNK        -0.4916 
     64 N          34.0628   30.3444    4.3550 N.am      11 UNK        -0.4279 
     65 CA         34.9040   29.2220    4.7920 C.3       11 UNK         0.1003 
     66 C          36.0824   29.6379    5.7231 C.2       11 UNK         0.5709 
     67 N          36.2297   30.8991    6.1150 N.am      11 UNK        -0.7358 
     68 O          36.8983   28.7946    6.0880 O.2       11 UNK        -0.4999 
     69 C69        34.0580   28.0837    5.4195 C.3       12 UNK        -0.0954 
     70 S70        32.8524   27.3658    4.2544 S.3       12 UNK        -0.2268 
     71 C71        33.9213   26.2007    3.3559 C.3       12 UNK         0.0203 
     72 H72        28.9718   19.6570   -2.3627 H         1 UNK         0.0888 
     73 H73        28.4928   18.1158   -1.6503 H         1 UNK         0.0888 
     74 H74        27.2870   19.1374   -2.4376 H         1 UNK         0.0888 
     75 H75        29.2906   21.2376   -0.8350 H         1 UNK         0.3017 
     76 H76        29.1748   22.5346    0.9216 H         1 UNK         0.0873 
     77 H77        29.6038   20.1644    2.0793 H         1 UNK         0.0745 
     78 H78        28.0197   20.3895    2.7373 H         1 UNK         0.0745 
     79 H79        31.8653   21.7630    4.3172 H         1 UNK         0.0705 
     80 H80        31.6062   20.9195    2.8209 H         1 UNK         0.0705 
     81 H81        32.6161   24.0460    4.3576 H         1 UNK         0.1334 
     82 H82        33.5098   26.0102    0.6547 H         1 UNK         0.1417 
     83 H83        31.4409   22.2522    0.6497 H         1 UNK         0.1562 
     84 H84        31.7365   23.3715   -1.4210 H         1 UNK         0.0748 
     85 H85        33.4164   23.8385   -1.3800 H         1 UNK         0.0748 
     86 H86        29.8707   25.0949   -0.8389 H         1 UNK         0.0940 
     87 H87        29.7248   25.5833   -2.5036 H         1 UNK         0.0940 
     88 H88        30.3885   27.9832   -1.7120 H         1 UNK         0.0703 
     89 H89        27.7180   26.8374   -1.0868 H         1 UNK         0.3081 
     90 H90        26.1040   29.8859   -1.8740 H         1 UNK         0.0719 
     91 H91        26.3704   28.9327   -4.1684 H         1 UNK         0.0809 
     92 H92        26.0772   27.3136   -3.5493 H         1 UNK         0.0809 
     93 H93        24.7998   28.5295   -3.4966 H         1 UNK         0.0809 
     94 H94        25.1804   27.2255   -1.2454 H         1 UNK         0.2990 
     95 H95        25.6937   27.2936    2.1790 H         1 UNK         0.0690 
     96 H96        23.7489   28.8667    2.2508 H         1 UNK         0.0788 
     97 H97        23.2522   27.2199    2.5950 H         1 UNK         0.0788 
     98 H98        22.9302   27.9273    1.0103 H         1 UNK         0.0788 
     99 H99        23.9233   25.6207    0.8186 H         1 UNK         0.2993 
    100 H100       24.6494   23.4292    0.5189 H         1 UNK         0.0949 
    101 H101       24.6993   22.8375   -1.9250 H         1 UNK         0.0767 
    102 H102       24.0975   24.4689   -1.6921 H         1 UNK         0.0767 
    103 H103       25.7466   24.2185   -2.2496 H         1 UNK         0.0767 
    104 H104       27.1288   22.7441   -0.8567 H         1 UNK         0.3013 
    105 H105       28.4952   26.3644    0.8718 H         1 UNK         0.3121 
    106 H106       30.3983   27.0459    2.9631 H         1 UNK         0.0774 
    107 H107       28.8278   25.7697    4.3865 H         1 UNK         0.0815 
    108 H108       27.6512   25.7003    3.0790 H         1 UNK         0.0815 
    109 H109       29.1992   24.8714    2.9261 H         1 UNK         0.0815 
    110 H110       29.7797   29.3980    1.8699 H         1 UNK         0.2987 
    111 H111       27.4792   30.7146    3.0930 H         1 UNK         0.0949 
    112 H112       28.2977   32.6807    1.7892 H         1 UNK         0.0806 
    113 H113       29.7246   31.7766    1.3024 H         1 UNK         0.0806 
    114 H114       28.1298   31.2529    0.7839 H         1 UNK         0.0806 
    115 H115       28.6101   29.8371    5.1898 H         1 UNK         0.3010 
    116 H116       29.4602   30.2112    7.2248 H         1 UNK         0.0829 
    117 H117       28.4725   33.0544    6.6077 H         1 UNK         0.0813 
    118 H118       27.5449   31.7382    7.3085 H         1 UNK         0.0813 
    119 H119       28.8594   32.4513    8.2203 H         1 UNK         0.0813 
    120 H120       30.4288   33.4803    6.7839 H         1 UNK         0.3038 
    121 H121       33.0940   33.1292    7.6061 H         1 UNK         0.0769 
    122 H122       31.7777   35.4769    6.1329 H         1 UNK         0.0811 
    123 H123       33.3145   35.5466    6.9840 H         1 UNK         0.0811 
    124 H124       31.8366   35.2502    7.8821 H         1 UNK         0.0811 
    125 H125       31.7691   32.7891    4.3774 H         1 UNK         0.3204 
    126 H126       34.1065   33.2385    2.8256 H         1 UNK         0.0748 
    127 H127       32.9291   31.8798    1.1161 H         1 UNK         0.0771 
    128 H128       31.8050   31.2791    2.3252 H         1 UNK         0.0771 
    129 H129       31.7993   32.9891    1.8787 H         1 UNK         0.0771 
    130 H130       33.2528   30.5362    4.9342 H         1 UNK         0.2980 
    131 H131       35.3856   28.8049    3.9060 H         1 UNK         0.0545 
    132 H132       37.0069   31.1346    6.7110 H         1 UNK         0.3459 
    133 H133       35.5900   31.6277    5.8181 H         1 UNK         0.3459 
    134 H134       33.5105   28.4566    6.2867 H         1 UNK         0.0616 
    135 H135       34.6942   27.2793    5.7926 H         1 UNK         0.0616 
    136 H136       34.5675   26.7636    2.6809 H         1 UNK         0.0634 
    137 H137       34.5823   25.6932    4.0599 H         1 UNK         0.0634 
@<TRIPOS>BOND
     1    1    2 1    
     2    1   72 1    
     3    1   73 1    
     4    1   74 1    
     5    2    3 2    
     6    2    4 am   BACKBONE|DICT|INTERRES
     7    4    5 1    
     8    4   75 1    
     9    5    6 1    
    10    5   35 1    
    11    5   76 1    
    12    6    7 1    
    13    6   77 1    
    14    6   78 1    
    15    7    8 1    
    16    8    9 1    
    17    8   79 1    
    18    8   80 1    
    19    9   10 ar   
    20    9   14 ar   
    21   10   11 ar   
    22   10   81 1    
    23   11   12 ar   
    24   11   71 1    
    25   12   13 ar   
    26   12   82 1    
    27   13   14 ar   
    28   13   15 1    
    29   14   83 1    
    30   15   16 1    
    31   15   84 1    
    32   15   85 1    
    33   16   17 1    
    34   17   18 1    
    35   17   86 1    
    36   17   87 1    
    37   18   19 1    
    38   18   37 1    
    39   18   88 1    
    40   19   20 am   BACKBONE|DICT|INTERRES
    41   19   89 1    
    42   20   21 2    
    43   20   22 1    
    44   22   23 1    
    45   22   24 1    
    46   22   90 1    
    47   23   91 1    
    48   23   92 1    
    49   23   93 1    
    50   24   25 am   BACKBONE|DICT|INTERRES
    51   24   94 1    
    52   25   26 2    
    53   25   27 1    
    54   27   28 1    
    55   27   29 1    
    56   27   95 1    
    57   28   96 1    
    58   28   97 1    
    59   28   98 1    
    60   29   30 am   BACKBONE|DICT|INTERRES
    61   29   99 1    
    62   30   31 2    
    63   30   32 1    
    64   32   33 1    
    65   32   34 1    
    66   32  100 1    
    67   33  101 1    
    68   33  102 1    
    69   33  103 1    
    70   34   35 am   BACKBONE|DICT|INTERRES
    71   34  104 1    
    72   35   36 2    
    73   37   38 2    
    74   37   39 am   BACKBONE|DICT|INTERRES
    75   39   40 1    
    76   39  105 1    
    77   40   41 1    
    78   40   42 1    
    79   40  106 1    
    80   41  107 1    
    81   41  108 1    
    82   41  109 1    
    83   42   43 2    
    84   42   44 am   BACKBONE|DICT|INTERRES
    85   44   45 1    
    86   44  110 1    
    87   45   46 1    
    88   45   47 1    
    89   45  111 1    
    90   46  112 1    
    91   46  113 1    
    92   46  114 1    
    93   47   48 2    
    94   47   49 am   BACKBONE|DICT|INTERRES
    95   49   50 1    
    96   49  115 1    
    97   50   51 1    
    98   50   52 1    
    99   50  116 1    
   100   51  117 1    
   101   51  118 1    
   102   51  119 1    
   103   52   53 2    
   104   52   54 am   BACKBONE|DICT|INTERRES
   105   54   55 1    
   106   54  120 1    
   107   55   56 1    
   108   55   57 1    
   109   55  121 1    
   110   56  122 1    
   111   56  123 1    
   112   56  124 1    
   113   57   58 2    
   114   57   59 am   BACKBONE|DICT|INTERRES
   115   59   60 1    
   116   59  125 1    
   117   60   61 1    
   118   60   62 1    
   119   60  126 1    
   120   61  127 1    
   121   61  128 1    
   122   61  129 1    
   123   62   63 2    
   124   62   64 am   BACKBONE|DICT|INTERRES
   125   64   65 1    
   126   64  130 1    
   127   65   66 1    
   128   65   69 1    
   129   65  131 1    
   130   66   67 am   BACKBONE|DICT|INTERRES
   131   66   68 2    
   132   67  132 1    
   133   67  133 1    
   134   69   70 1    
   135   69  134 1    
   136   69  135 1    
   137   70   71 1    
   138   71  136 1    
   139   71  137 1    
@<TRIPOS>SUBSTRUCTURE
     1 UNK         1 GROUP             0       ****    0 ROOT    
