@<TRIPOS>MOLECULE
3R136
137   139    1
SMALL
USER_CHARGES


@<TRIPOS>ATOM
      1 CA         30.7383   21.6604    3.5548 C.3       0 UNK        -0.1979 
      2 C          30.2839   21.5588    2.1075 C.2       0 UNK         0.4864 
      3 O          29.8211   20.5009    1.6790 O.2       0 UNK        -0.5359 
      4 N          30.4196   22.6562    1.3520 N.am      1 UNK        -0.4318 
      5 CA         30.0803   22.7504   -0.0752 C.3       1 UNK         0.0824 
      6 C6         30.6418   24.0384   -0.7296 C.3       12 UNK        -0.0944 
      7 S7         32.4354   24.2626   -0.4812 S.3       12 UNK        -0.2672 
      8 C8         32.4776   25.7831    0.5192 C.3       12 UNK         0.0333 
      9 C9         32.1161   25.5165    1.9740 C.ar      12 UNK        -0.0807 
     10 C10        33.1029   25.0840    2.8630 C.ar      12 UNK        -0.0894 
     11 C11        32.7895   24.8268    4.1989 C.ar      12 UNK        -0.0804 
     12 C12        31.4766   25.0055    4.6425 C.ar      12 UNK        -0.0824 
     13 C13        30.4711   25.4303    3.7677 C.ar      12 UNK        -0.0762 
     14 C14        30.8063   25.6986    2.4318 C.ar      12 UNK        -0.0782 
     15 C15        29.0494   25.5533    4.3254 C.3       12 UNK         0.0230 
     16 S16        27.7276   25.8868    3.1130 S.3       12 UNK        -0.2608 
     17 C17        27.9170   27.6852    2.8559 C.3       12 UNK        -0.0989 
     18 CA         27.4843   28.1090    1.4274 C.3       5 UNK         0.0716 
     19 N          26.0858   27.7705    1.1311 N.am      5 UNK        -0.4135 
     20 C          24.9850   28.3380    1.6519 C.2       4 UNK         0.5031 
     21 O          25.0178   29.2504    2.4791 O.2       4 UNK        -0.5229 
     22 CA         23.6059   27.8012    1.2087 C.3       4 UNK         0.0329 
     23 CB         22.6688   28.9411    0.7549 C.3       4 UNK        -0.2001 
     24 N          23.6504   26.7203    0.2131 N.am      4 UNK        -0.4303 
     25 C          24.0609   26.7818   -1.0632 C.2       3 UNK         0.5044 
     26 O          24.4265   27.8174   -1.6220 O.2       3 UNK        -0.5152 
     27 CA         24.1441   25.4253   -1.7962 C.3       3 UNK         0.0319 
     28 CB         24.8923   25.5177   -3.1432 C.3       3 UNK        -0.2001 
     29 N          24.7256   24.3640   -0.9555 N.am      3 UNK        -0.4354 
     30 C          25.9211   24.3920   -0.3436 C.2       2 UNK         0.4964 
     31 O          26.7017   25.3436   -0.4225 O.2       2 UNK        -0.5047 
     32 CA         26.2835   23.1974    0.5623 C.3       2 UNK         0.0288 
     33 CB         25.5588   21.8805    0.1992 C.3       2 UNK        -0.2113 
     34 N          27.7365   23.0103    0.6412 N.am      2 UNK        -0.4145 
     35 C          28.5645   22.6612   -0.3569 C.2       1 UNK         0.5006 
     36 O          28.1882   22.3086   -1.4767 O.2       1 UNK        -0.5103 
     37 C          27.8066   29.5849    1.0993 C.2       5 UNK         0.5055 
     38 O          28.5232   30.2486    1.8530 O.2       5 UNK        -0.5220 
     39 N          27.2543   30.0735   -0.0226 N.am      6 UNK        -0.4450 
     40 CA         27.4130   31.4400   -0.5211 C.3       6 UNK         0.0367 
     41 CB         26.5512   31.6262   -1.7804 C.3       6 UNK        -0.1929 
     42 C          28.8864   31.7712   -0.8084 C.2       6 UNK         0.5070 
     43 O          29.5384   31.0357   -1.5522 O.2       6 UNK        -0.5237 
     44 N          29.3734   32.8564   -0.1902 N.am      7 UNK        -0.4739 
     45 CA         30.7633   33.3363   -0.2021 C.3       7 UNK         0.0276 
     46 CB         31.1800   33.7886   -1.6187 C.3       7 UNK        -0.1927 
     47 C          31.7733   32.3525    0.4309 C.2       7 UNK         0.5013 
     48 O          32.9637   32.4229    0.1183 O.2       7 UNK        -0.5193 
     49 N          31.2940   31.4700    1.3168 N.am      8 UNK        -0.4253 
     50 CA         32.0884   30.4947    2.0566 C.3       8 UNK         0.0242 
     51 CB         32.0117   29.1254    1.3534 C.3       8 UNK        -0.2000 
     52 C          31.6189   30.4929    3.5186 C.2       8 UNK         0.4948 
     53 O          31.5711   31.5638    4.1277 O.2       8 UNK        -0.5275 
     54 N          31.3204   29.3083    4.0737 N.am      9 UNK        -0.4246 
     55 CA         30.8820   29.0175    5.4487 C.3       9 UNK         0.0261 
     56 CB         29.5741   29.7499    5.8065 C.3       9 UNK        -0.1959 
     57 C          31.9669   29.2508    6.5133 C.2       9 UNK         0.5033 
     58 O          32.1990   28.3692    7.3407 O.2       9 UNK        -0.5390 
     59 N          32.6615   30.3921    6.4462 N.am      10 UNK        -0.4215 
     60 CA         33.8506   30.7239    7.2357 C.3       10 UNK         0.0240 
     61 CB         33.9776   32.2563    7.3235 C.3       10 UNK        -0.1982 
     62 C          35.1100   30.0521    6.6487 C.2       10 UNK         0.4970 
     63 O          36.0966   30.7292    6.3547 O.2       10 UNK        -0.4916 
     64 N          35.0346   28.7312    6.4562 N.am      11 UNK        -0.4279 
     65 CA         36.0736   27.8842    5.8548 C.3       11 UNK         0.1003 
     66 C          37.2525   27.5124    6.8017 C.2       11 UNK         0.5709 
     67 N          37.2007   27.8323    8.0897 N.am      11 UNK        -0.7358 
     68 O          38.2423   26.9382    6.3537 O.2       11 UNK        -0.4999 
     69 C69        35.4446   26.6443    5.1642 C.3       12 UNK        -0.0954 
     70 S70        34.4440   25.6103    6.2886 S.3       12 UNK        -0.2268 
     71 C71        33.8569   24.3149    5.1557 C.3       12 UNK         0.0203 
     72 H72        29.9996   22.1983    4.1484 H         1 UNK         0.0888 
     73 H73        30.8691   20.6693    3.9886 H         1 UNK         0.0888 
     74 H74        31.6909   22.1843    3.6262 H         1 UNK         0.0888 
     75 H75        30.8430   23.4834    1.7524 H         1 UNK         0.3017 
     76 H76        30.5427   21.8943   -0.5714 H         1 UNK         0.0873 
     77 H77        30.1060   24.9183   -0.3697 H         1 UNK         0.0745 
     78 H78        30.4698   24.0134   -1.8076 H         1 UNK         0.0745 
     79 H79        31.8123   26.5283    0.0812 H         1 UNK         0.0705 
     80 H80        33.4813   26.2078    0.4651 H         1 UNK         0.0705 
     81 H81        34.1151   24.9378    2.5104 H         1 UNK         0.1334 
     82 H82        31.2357   24.7961    5.6763 H         1 UNK         0.1417 
     83 H83        30.0529   26.0326    1.7338 H         1 UNK         0.1562 
     84 H84        29.0224   26.3223    5.0979 H         1 UNK         0.0748 
     85 H85        28.7978   24.6164    4.8247 H         1 UNK         0.0748 
     86 H86        28.9582   27.9564    3.0341 H         1 UNK         0.0940 
     87 H87        27.3309   28.2130    3.6099 H         1 UNK         0.0940 
     88 H88        28.0828   27.5285    0.7234 H         1 UNK         0.0703 
     89 H89        25.9750   27.0082    0.4713 H         1 UNK         0.3081 
     90 H90        23.1657   27.3561    2.1022 H         1 UNK         0.0719 
     91 H91        23.0792   29.4951   -0.0898 H         1 UNK         0.0809 
     92 H92        21.6902   28.5597    0.4640 H         1 UNK         0.0809 
     93 H93        22.5079   29.6585    1.5606 H         1 UNK         0.0809 
     94 H94        23.3945   25.8082    0.5658 H         1 UNK         0.2990 
     95 H95        23.1157   25.1293   -2.0086 H         1 UNK         0.0690 
     96 H96        24.9125   24.5541   -3.6521 H         1 UNK         0.0788 
     97 H97        25.9233   25.8483   -3.0120 H         1 UNK         0.0788 
     98 H98        24.4059   26.2275   -3.8134 H         1 UNK         0.0788 
     99 H99        24.1498   23.5435   -0.8241 H         1 UNK         0.2993 
    100 H100       25.9677   23.4811    1.5675 H         1 UNK         0.0949 
    101 H101       25.9204   21.0536    0.8108 H         1 UNK         0.0767 
    102 H102       24.4851   21.9552    0.3744 H         1 UNK         0.0767 
    103 H103       25.7052   21.6061   -0.8462 H         1 UNK         0.0767 
    104 H104       28.1627   23.3150    1.5046 H         1 UNK         0.3013 
    105 H105       26.6893   29.4522   -0.5843 H         1 UNK         0.3121 
    106 H106       27.0382   32.1142    0.2520 H         1 UNK         0.0774 
    107 H107       26.6323   32.6454   -2.1607 H         1 UNK         0.0815 
    108 H108       26.8586   30.9538   -2.5825 H         1 UNK         0.0815 
    109 H109       25.4971   31.4408   -1.5726 H         1 UNK         0.0815 
    110 H110       28.7458   33.3791    0.4065 H         1 UNK         0.2987 
    111 H111       30.7806   34.2200    0.4377 H         1 UNK         0.0949 
    112 H112       31.2689   32.9453   -2.3042 H         1 UNK         0.0806 
    113 H113       30.4600   34.4900   -2.0401 H         1 UNK         0.0806 
    114 H114       32.1469   34.2930   -1.6006 H         1 UNK         0.0806 
    115 H115       30.3018   31.4705    1.5288 H         1 UNK         0.3010 
    116 H116       33.1342   30.8086    2.0786 H         1 UNK         0.0829 
    117 H117       32.3545   29.1996    0.3211 H         1 UNK         0.0813 
    118 H118       32.6534   28.3950    1.8468 H         1 UNK         0.0813 
    119 H119       30.9940   28.7335    1.3317 H         1 UNK         0.0813 
    120 H120       31.4446   28.4912    3.4929 H         1 UNK         0.3038 
    121 H121       30.6701   27.9486    5.4622 H         1 UNK         0.0769 
    122 H122       29.1924   29.4117    6.7705 H         1 UNK         0.0811 
    123 H123       28.7976   29.5637    5.0656 H         1 UNK         0.0811 
    124 H124       29.7134   30.8290    5.8758 H         1 UNK         0.0811 
    125 H125       32.4018   31.0382    5.7026 H         1 UNK         0.3204 
    126 H126       33.7220   30.3405    8.2501 H         1 UNK         0.0748 
    127 H127       34.8321   32.5449    7.9370 H         1 UNK         0.0771 
    128 H128       34.1127   32.7070    6.3392 H         1 UNK         0.0771 
    129 H129       33.0912   32.7013    7.7761 H         1 UNK         0.0771 
    130 H130       34.1899   28.2519    6.7492 H         1 UNK         0.2980 
    131 H131       36.5359   28.4720    5.0596 H         1 UNK         0.0545 
    132 H132       37.9735   27.5920    8.6901 H         1 UNK         0.3459 
    133 H133       36.3928   28.3003    8.4667 H         1 UNK         0.3459 
    134 H134       34.8000   26.9788    4.3500 H         1 UNK         0.0616 
    135 H135       36.2138   26.0245    4.6998 H         1 UNK         0.0616 
    136 H136       34.7047   23.8997    4.6086 H         1 UNK         0.0634 
    137 H137       33.4459   23.4950    5.7464 H         1 UNK         0.0634 
@<TRIPOS>BOND
     1    1    2 1    
     2    1   72 1    
     3    1   73 1    
     4    1   74 1    
     5    2    3 2    
     6    2    4 am   BACKBONE|DICT|INTERRES
     7    4    5 1    
     8    4   75 1    
     9    5    6 1    
    10    5   35 1    
    11    5   76 1    
    12    6    7 1    
    13    6   77 1    
    14    6   78 1    
    15    7    8 1    
    16    8    9 1    
    17    8   79 1    
    18    8   80 1    
    19    9   10 ar   
    20    9   14 ar   
    21   10   11 ar   
    22   10   81 1    
    23   11   12 ar   
    24   11   71 1    
    25   12   13 ar   
    26   12   82 1    
    27   13   14 ar   
    28   13   15 1    
    29   14   83 1    
    30   15   16 1    
    31   15   84 1    
    32   15   85 1    
    33   16   17 1    
    34   17   18 1    
    35   17   86 1    
    36   17   87 1    
    37   18   19 1    
    38   18   37 1    
    39   18   88 1    
    40   19   20 am   BACKBONE|DICT|INTERRES
    41   19   89 1    
    42   20   21 2    
    43   20   22 1    
    44   22   23 1    
    45   22   24 1    
    46   22   90 1    
    47   23   91 1    
    48   23   92 1    
    49   23   93 1    
    50   24   25 am   BACKBONE|DICT|INTERRES
    51   24   94 1    
    52   25   26 2    
    53   25   27 1    
    54   27   28 1    
    55   27   29 1    
    56   27   95 1    
    57   28   96 1    
    58   28   97 1    
    59   28   98 1    
    60   29   30 am   BACKBONE|DICT|INTERRES
    61   29   99 1    
    62   30   31 2    
    63   30   32 1    
    64   32   33 1    
    65   32   34 1    
    66   32  100 1    
    67   33  101 1    
    68   33  102 1    
    69   33  103 1    
    70   34   35 am   BACKBONE|DICT|INTERRES
    71   34  104 1    
    72   35   36 2    
    73   37   38 2    
    74   37   39 am   BACKBONE|DICT|INTERRES
    75   39   40 1    
    76   39  105 1    
    77   40   41 1    
    78   40   42 1    
    79   40  106 1    
    80   41  107 1    
    81   41  108 1    
    82   41  109 1    
    83   42   43 2    
    84   42   44 am   BACKBONE|DICT|INTERRES
    85   44   45 1    
    86   44  110 1    
    87   45   46 1    
    88   45   47 1    
    89   45  111 1    
    90   46  112 1    
    91   46  113 1    
    92   46  114 1    
    93   47   48 2    
    94   47   49 am   BACKBONE|DICT|INTERRES
    95   49   50 1    
    96   49  115 1    
    97   50   51 1    
    98   50   52 1    
    99   50  116 1    
   100   51  117 1    
   101   51  118 1    
   102   51  119 1    
   103   52   53 2    
   104   52   54 am   BACKBONE|DICT|INTERRES
   105   54   55 1    
   106   54  120 1    
   107   55   56 1    
   108   55   57 1    
   109   55  121 1    
   110   56  122 1    
   111   56  123 1    
   112   56  124 1    
   113   57   58 2    
   114   57   59 am   BACKBONE|DICT|INTERRES
   115   59   60 1    
   116   59  125 1    
   117   60   61 1    
   118   60   62 1    
   119   60  126 1    
   120   61  127 1    
   121   61  128 1    
   122   61  129 1    
   123   62   63 2    
   124   62   64 am   BACKBONE|DICT|INTERRES
   125   64   65 1    
   126   64  130 1    
   127   65   66 1    
   128   65   69 1    
   129   65  131 1    
   130   66   67 am   BACKBONE|DICT|INTERRES
   131   66   68 2    
   132   67  132 1    
   133   67  133 1    
   134   69   70 1    
   135   69  134 1    
   136   69  135 1    
   137   70   71 1    
   138   71  136 1    
   139   71  137 1    
@<TRIPOS>SUBSTRUCTURE
     1 UNK         1 GROUP             0       ****    0 ROOT    
