@<TRIPOS>MOLECULE
3R136
137   139    1
SMALL
USER_CHARGES


@<TRIPOS>ATOM
      1 CA         29.2400   25.0777    5.3472 C.3       0 UNK        -0.1979 
      2 C          28.2944   24.5479    4.2830 C.2       0 UNK         0.4864 
      3 O          27.1244   24.2895    4.5697 O.2       0 UNK        -0.5359 
      4 N          28.7861   24.3988    3.0466 N.am      1 UNK        -0.4318 
      5 CA         28.0635   23.8151    1.9080 C.3       1 UNK         0.0824 
      6 C6         29.0294   23.1889    0.8658 C.3       12 UNK        -0.0944 
      7 S7         30.2196   22.0291    1.6293 S.3       12 UNK        -0.2672 
      8 C8         31.8361   22.7323    1.1604 C.3       12 UNK         0.0333 
      9 C9         32.0274   24.1695    1.6317 C.ar      12 UNK        -0.0807 
     10 C10        32.2901   24.4508    2.9760 C.ar      12 UNK        -0.0894 
     11 C11        32.5076   25.7683    3.3916 C.ar      12 UNK        -0.0804 
     12 C12        32.4349   26.8043    2.4581 C.ar      12 UNK        -0.0824 
     13 C13        32.1597   26.5460    1.1130 C.ar      12 UNK        -0.0762 
     14 C14        31.9770   25.2175    0.7070 C.ar      12 UNK        -0.0782 
     15 C15        32.1029   27.7311    0.1448 C.3       12 UNK         0.0230 
     16 S16        31.3826   27.4011   -1.5019 S.3       12 UNK        -0.2608 
     17 C17        29.6863   26.8564   -1.1057 C.3       12 UNK        -0.0989 
     18 CA         28.6026   27.7660   -1.7514 C.3       5 UNK         0.0716 
     19 N          27.4401   27.0061   -2.2044 N.am      5 UNK        -0.4135 
     20 C          27.4077   26.2178   -3.2836 C.2       4 UNK         0.5031 
     21 O          28.3615   26.0946   -4.0545 O.2       4 UNK        -0.5229 
     22 CA         26.1125   25.4324   -3.5582 C.3       4 UNK         0.0329 
     23 CB         26.3755   24.1083   -4.3068 C.3       4 UNK        -0.2001 
     24 N          25.3435   25.1642   -2.3381 N.am      4 UNK        -0.4303 
     25 C          24.0101   25.0107   -2.3127 C.2       3 UNK         0.5044 
     26 O          23.2918   25.1431   -3.3049 O.2       3 UNK        -0.5152 
     27 CA         23.3470   24.6245   -0.9756 C.3       3 UNK         0.0319 
     28 CB         23.0934   23.1089   -0.9249 C.3       3 UNK        -0.2001 
     29 N          24.1167   25.0165    0.2045 N.am      3 UNK        -0.4354 
     30 C          24.3277   26.2798    0.5960 C.2       2 UNK         0.4964 
     31 O          23.8157   27.2553    0.0465 O.2       2 UNK        -0.5047 
     32 CA         25.2718   26.5015    1.7929 C.3       2 UNK         0.0288 
     33 CB         24.4613   26.8332    3.0570 C.3       2 UNK        -0.2113 
     34 N          26.1948   25.3994    2.1005 N.am      2 UNK        -0.4145 
     35 C          27.0873   24.8331    1.2750 C.2       1 UNK         0.5006 
     36 O          27.1561   25.0910    0.0726 O.2       1 UNK        -0.5103 
     37 C          28.1197   28.8611   -0.7877 C.2       5 UNK         0.5055 
     38 O          26.9759   28.8143   -0.3290 O.2       5 UNK        -0.5220 
     39 N          29.0046   29.8205   -0.4880 N.am      6 UNK        -0.4450 
     40 CA         28.7490   30.9273    0.4412 C.3       6 UNK         0.0367 
     41 CB         29.8262   32.0058    0.2457 C.3       6 UNK        -0.1929 
     42 C          28.6682   30.4993    1.9206 C.2       6 UNK         0.5070 
     43 O          28.0079   31.1869    2.7002 O.2       6 UNK        -0.5237 
     44 N          29.3217   29.3760    2.2619 N.am      7 UNK        -0.4739 
     45 CA         29.4046   28.7423    3.5865 C.3       7 UNK         0.0276 
     46 CB         27.9992   28.3101    4.0614 C.3       7 UNK        -0.1927 
     47 C          30.1494   29.5850    4.6457 C.2       7 UNK         0.5013 
     48 O          30.6834   30.6536    4.3364 O.2       7 UNK        -0.5193 
     49 N          30.1971   29.0570    5.8798 N.am      8 UNK        -0.4253 
     50 CA         30.7547   29.6656    7.0945 C.3       8 UNK         0.0242 
     51 CB         29.7737   30.7291    7.6396 C.3       8 UNK        -0.2000 
     52 C          32.1925   30.1832    6.8955 C.2       8 UNK         0.4948 
     53 O          33.0995   29.3774    6.6769 O.2       8 UNK        -0.5275 
     54 N          32.3705   31.5113    6.9283 N.am      9 UNK        -0.4246 
     55 CA         33.6376   32.2266    6.7466 C.3       9 UNK         0.0261 
     56 CB         33.3902   33.7330    6.9314 C.3       9 UNK        -0.1959 
     57 C          34.3565   31.9601    5.4096 C.2       9 UNK         0.5033 
     58 O          35.5546   32.2319    5.3202 O.2       9 UNK        -0.5390 
     59 N          33.6472   31.4150    4.4089 N.am      10 UNK        -0.4215 
     60 CA         34.2284   30.9548    3.1460 C.3       10 UNK         0.0240 
     61 CB         33.1158   30.7728    2.1033 C.3       10 UNK        -0.1982 
     62 C          35.1028   29.6892    3.2766 C.2       10 UNK         0.4970 
     63 O          35.8391   29.3965    2.3335 O.2       10 UNK        -0.4916 
     64 N          35.0485   28.9828    4.4172 N.am      11 UNK        -0.4279 
     65 CA         36.0085   27.9219    4.7669 C.3       11 UNK         0.1003 
     66 C          36.4648   27.9376    6.2534 C.2       11 UNK         0.5709 
     67 N          35.7359   28.5528    7.1771 N.am      11 UNK        -0.7358 
     68 O          37.5254   27.4039    6.5709 O.2       11 UNK        -0.4999 
     69 C69        35.5902   26.5203    4.2345 C.3       12 UNK        -0.0954 
     70 S70        34.4989   25.5302    5.3188 S.3       12 UNK        -0.2268 
     71 C71        32.8344   26.0829    4.8446 C.3       12 UNK         0.0203 
     72 H72        28.6818   25.4804    6.1921 H         1 UNK         0.0888 
     73 H73        29.8665   25.8708    4.9452 H         1 UNK         0.0888 
     74 H74        29.8811   24.2762    5.7133 H         1 UNK         0.0888 
     75 H75        29.7555   24.6205    2.8650 H         1 UNK         0.3017 
     76 H76        27.4442   23.0000    2.2894 H         1 UNK         0.0873 
     77 H77        28.4622   22.6364    0.1145 H         1 UNK         0.0745 
     78 H78        29.5649   23.9642    0.3184 H         1 UNK         0.0745 
     79 H79        32.6245   22.1089    1.5845 H         1 UNK         0.0705 
     80 H80        31.9480   22.6633    0.0772 H         1 UNK         0.0705 
     81 H81        32.3489   23.6434    3.6936 H         1 UNK         0.1334 
     82 H82        32.6117   27.8185    2.7836 H         1 UNK         0.1417 
     83 H83        31.7965   24.9858   -0.3328 H         1 UNK         0.1562 
     84 H84        33.1201   28.0976   -0.0011 H         1 UNK         0.0748 
     85 H85        31.5475   28.5495    0.6010 H         1 UNK         0.0748 
     86 H86        29.5446   26.7583   -0.0274 H         1 UNK         0.0940 
     87 H87        29.6043   25.8377   -1.4875 H         1 UNK         0.0940 
     88 H88        29.0125   28.2699   -2.6298 H         1 UNK         0.0703 
     89 H89        26.6228   27.1157   -1.6167 H         1 UNK         0.3081 
     90 H90        25.5210   26.0780   -4.2107 H         1 UNK         0.0719 
     91 H91        26.9883   23.4300   -3.7121 H         1 UNK         0.0809 
     92 H92        25.4456   23.5941   -4.5497 H         1 UNK         0.0809 
     93 H93        26.8969   24.2816   -5.2491 H         1 UNK         0.0809 
     94 H94        25.8802   25.0481   -1.4818 H         1 UNK         0.2990 
     95 H95        22.3817   25.1335   -0.9312 H         1 UNK         0.0690 
     96 H96        22.5510   22.8263   -0.0224 H         1 UNK         0.0788 
     97 H97        24.0252   22.5424   -0.9503 H         1 UNK         0.0788 
     98 H98        22.4924   22.7852   -1.7760 H         1 UNK         0.0788 
     99 H99        24.5714   24.2774    0.7196 H         1 UNK         0.2993 
    100 H100       25.8846   27.3693    1.5454 H         1 UNK         0.0949 
    101 H101       23.7945   27.6795    2.8847 H         1 UNK         0.0767 
    102 H102       23.8451   25.9898    3.3712 H         1 UNK         0.0767 
    103 H103       25.1114   27.1015    3.8899 H         1 UNK         0.0767 
    104 H104       26.2329   25.0989    3.0716 H         1 UNK         0.3013 
    105 H105       29.9131   29.7950   -0.9298 H         1 UNK         0.3121 
    106 H106       27.7824   31.3666    0.1841 H         1 UNK         0.0774 
    107 H107       29.7801   32.4340   -0.7557 H         1 UNK         0.0815 
    108 H108       30.8283   31.6048    0.3922 H         1 UNK         0.0815 
    109 H109       29.6946   32.8259    0.9533 H         1 UNK         0.0815 
    110 H110       29.8321   28.9125    1.5274 H         1 UNK         0.2987 
    111 H111       29.9975   27.8390    3.4456 H         1 UNK         0.0949 
    112 H112       27.3569   29.1665    4.2686 H         1 UNK         0.0806 
    113 H113       27.5074   27.7019    3.3046 H         1 UNK         0.0806 
    114 H114       28.0348   27.7133    4.9717 H         1 UNK         0.0806 
    115 H115       29.7687   28.1548    6.0223 H         1 UNK         0.3010 
    116 H116       30.8260   28.8706    7.8385 H         1 UNK         0.0829 
    117 H117       28.8075   30.2811    7.8727 H         1 UNK         0.0813 
    118 H118       30.1434   31.1768    8.5634 H         1 UNK         0.0813 
    119 H119       29.5933   31.5316    6.9231 H         1 UNK         0.0813 
    120 H120       31.5527   32.0854    7.0740 H         1 UNK         0.3038 
    121 H121       34.3113   31.8911    7.5377 H         1 UNK         0.0769 
    122 H122       32.6969   34.1219    6.1844 H         1 UNK         0.0811 
    123 H123       34.3195   34.2970    6.8377 H         1 UNK         0.0811 
    124 H124       32.9812   33.9516    7.9180 H         1 UNK         0.0811 
    125 H125       32.6571   31.2326    4.5492 H         1 UNK         0.3204 
    126 H126       34.8876   31.7453    2.7806 H         1 UNK         0.0748 
    127 H127       32.5905   31.7125    1.9352 H         1 UNK         0.0771 
    128 H128       33.5222   30.4519    1.1433 H         1 UNK         0.0771 
    129 H129       32.3808   30.0345    2.4163 H         1 UNK         0.0771 
    130 H130       34.4087   29.2634    5.1519 H         1 UNK         0.2980 
    131 H131       36.9325   28.1694    4.2397 H         1 UNK         0.0545 
    132 H132       36.0696   28.5571    8.1272 H         1 UNK         0.3459 
    133 H133       34.8047   28.9068    6.9755 H         1 UNK         0.3459 
    134 H134       35.1541   26.6010    3.2388 H         1 UNK         0.0616 
    135 H135       36.4921   25.9227    4.0940 H         1 UNK         0.0616 
    136 H136       32.7419   27.1509    5.0467 H         1 UNK         0.0634 
    137 H137       32.1185   25.5843    5.4969 H         1 UNK         0.0634 
@<TRIPOS>BOND
     1    1    2 1    
     2    1   72 1    
     3    1   73 1    
     4    1   74 1    
     5    2    3 2    
     6    2    4 am   BACKBONE|DICT|INTERRES
     7    4    5 1    
     8    4   75 1    
     9    5    6 1    
    10    5   35 1    
    11    5   76 1    
    12    6    7 1    
    13    6   77 1    
    14    6   78 1    
    15    7    8 1    
    16    8    9 1    
    17    8   79 1    
    18    8   80 1    
    19    9   10 ar   
    20    9   14 ar   
    21   10   11 ar   
    22   10   81 1    
    23   11   12 ar   
    24   11   71 1    
    25   12   13 ar   
    26   12   82 1    
    27   13   14 ar   
    28   13   15 1    
    29   14   83 1    
    30   15   16 1    
    31   15   84 1    
    32   15   85 1    
    33   16   17 1    
    34   17   18 1    
    35   17   86 1    
    36   17   87 1    
    37   18   19 1    
    38   18   37 1    
    39   18   88 1    
    40   19   20 am   BACKBONE|DICT|INTERRES
    41   19   89 1    
    42   20   21 2    
    43   20   22 1    
    44   22   23 1    
    45   22   24 1    
    46   22   90 1    
    47   23   91 1    
    48   23   92 1    
    49   23   93 1    
    50   24   25 am   BACKBONE|DICT|INTERRES
    51   24   94 1    
    52   25   26 2    
    53   25   27 1    
    54   27   28 1    
    55   27   29 1    
    56   27   95 1    
    57   28   96 1    
    58   28   97 1    
    59   28   98 1    
    60   29   30 am   BACKBONE|DICT|INTERRES
    61   29   99 1    
    62   30   31 2    
    63   30   32 1    
    64   32   33 1    
    65   32   34 1    
    66   32  100 1    
    67   33  101 1    
    68   33  102 1    
    69   33  103 1    
    70   34   35 am   BACKBONE|DICT|INTERRES
    71   34  104 1    
    72   35   36 2    
    73   37   38 2    
    74   37   39 am   BACKBONE|DICT|INTERRES
    75   39   40 1    
    76   39  105 1    
    77   40   41 1    
    78   40   42 1    
    79   40  106 1    
    80   41  107 1    
    81   41  108 1    
    82   41  109 1    
    83   42   43 2    
    84   42   44 am   BACKBONE|DICT|INTERRES
    85   44   45 1    
    86   44  110 1    
    87   45   46 1    
    88   45   47 1    
    89   45  111 1    
    90   46  112 1    
    91   46  113 1    
    92   46  114 1    
    93   47   48 2    
    94   47   49 am   BACKBONE|DICT|INTERRES
    95   49   50 1    
    96   49  115 1    
    97   50   51 1    
    98   50   52 1    
    99   50  116 1    
   100   51  117 1    
   101   51  118 1    
   102   51  119 1    
   103   52   53 2    
   104   52   54 am   BACKBONE|DICT|INTERRES
   105   54   55 1    
   106   54  120 1    
   107   55   56 1    
   108   55   57 1    
   109   55  121 1    
   110   56  122 1    
   111   56  123 1    
   112   56  124 1    
   113   57   58 2    
   114   57   59 am   BACKBONE|DICT|INTERRES
   115   59   60 1    
   116   59  125 1    
   117   60   61 1    
   118   60   62 1    
   119   60  126 1    
   120   61  127 1    
   121   61  128 1    
   122   61  129 1    
   123   62   63 2    
   124   62   64 am   BACKBONE|DICT|INTERRES
   125   64   65 1    
   126   64  130 1    
   127   65   66 1    
   128   65   69 1    
   129   65  131 1    
   130   66   67 am   BACKBONE|DICT|INTERRES
   131   66   68 2    
   132   67  132 1    
   133   67  133 1    
   134   69   70 1    
   135   69  134 1    
   136   69  135 1    
   137   70   71 1    
   138   71  136 1    
   139   71  137 1    
@<TRIPOS>SUBSTRUCTURE
     1 UNK         1 GROUP             0       ****    0 ROOT    
