@<TRIPOS>MOLECULE
3R136
137   139    1
SMALL
USER_CHARGES


@<TRIPOS>ATOM
      1 CA         26.6416   20.6440    4.7636 C.3       0 UNK        -0.1979 
      2 C          27.0275   21.8430    3.9095 C.2       0 UNK         0.4864 
      3 O          26.6711   22.9703    4.2536 O.2       0 UNK        -0.5359 
      4 N          27.7481   21.5965    2.8045 N.am      1 UNK        -0.4318 
      5 CA         28.2430   22.5839    1.8316 C.3       1 UNK         0.0824 
      6 C6         29.3298   23.5418    2.3995 C.3       12 UNK        -0.0944 
      7 S7         30.7014   22.6618    3.2285 S.3       12 UNK        -0.2672 
      8 C8         31.7622   22.1533    1.8362 C.3       12 UNK         0.0333 
      9 C9         32.5315   23.3240    1.2446 C.ar      12 UNK        -0.0807 
     10 C10        33.6051   23.8823    1.9466 C.ar      12 UNK        -0.0894 
     11 C11        34.3019   24.9764    1.4249 C.ar      12 UNK        -0.0804 
     12 C12        33.9324   25.4954    0.1821 C.ar      12 UNK        -0.0824 
     13 C13        32.8472   24.9599   -0.5172 C.ar      12 UNK        -0.0762 
     14 C14        32.1621   23.8600    0.0069 C.ar      12 UNK        -0.0782 
     15 C15        32.3514   25.6456   -1.7824 C.3       12 UNK         0.0230 
     16 S16        30.8389   26.6298   -1.4814 S.3       12 UNK        -0.2608 
     17 C17        31.1048   27.2582    0.2143 C.3       12 UNK        -0.0989 
     18 CA         30.0776   28.3131    0.6742 C.3       5 UNK         0.0716 
     19 N          28.6915   27.8882    0.4507 N.am      5 UNK        -0.4135 
     20 C          27.6033   28.6269    0.7068 C.2       4 UNK         0.5031 
     21 O          27.6545   29.7631    1.1834 O.2       4 UNK        -0.5229 
     22 CA         26.2385   27.9628    0.4634 C.3       4 UNK         0.0329 
     23 CB         25.1346   28.9751    0.0902 C.3       4 UNK        -0.2001 
     24 N          26.2954   26.8279   -0.4672 N.am      4 UNK        -0.4303 
     25 C          26.4340   26.8472   -1.8035 C.2       3 UNK         0.5044 
     26 O          26.5658   27.8785   -2.4628 O.2       3 UNK        -0.5152 
     27 CA         26.4280   25.4883   -2.5440 C.3       3 UNK         0.0319 
     28 CB         27.7696   25.2363   -3.2521 C.3       3 UNK        -0.2001 
     29 N          26.1322   24.3369   -1.6849 N.am      3 UNK        -0.4354 
     30 C          24.9445   24.0702   -1.1245 C.2       2 UNK         0.4964 
     31 O          23.9154   24.6929   -1.3873 O.2       2 UNK        -0.5047 
     32 CA         24.8903   22.9529   -0.0629 C.3       2 UNK         0.0288 
     33 CB         24.1906   21.7080   -0.6340 C.3       2 UNK        -0.2113 
     34 N          26.1749   22.5439    0.5273 N.am      2 UNK        -0.4145 
     35 C          27.0698   23.3272    1.1531 C.2       1 UNK         0.5006 
     36 O          26.9839   24.5565    1.2139 O.2       1 UNK        -0.5103 
     37 C          30.3542   28.6706    2.1482 C.2       5 UNK         0.5055 
     38 O          31.1374   29.5782    2.4120 O.2       5 UNK        -0.5220 
     39 N          29.6883   27.9705    3.0778 N.am      6 UNK        -0.4450 
     40 CA         29.7685   28.2115    4.5191 C.3       6 UNK         0.0367 
     41 CB         29.1864   26.9976    5.2613 C.3       6 UNK        -0.1929 
     42 C          29.0927   29.5183    4.9784 C.2       6 UNK         0.5070 
     43 O          29.3617   29.9640    6.0940 O.2       6 UNK        -0.5237 
     44 N          28.2314   30.1032    4.1342 N.am      7 UNK        -0.4739 
     45 CA         27.6385   31.4238    4.3447 C.3       7 UNK         0.0276 
     46 CB         26.1616   31.3989    3.9161 C.3       7 UNK        -0.1927 
     47 C          28.4126   32.4975    3.5650 C.2       7 UNK         0.5013 
     48 O          28.6302   33.5874    4.0953 O.2       7 UNK        -0.5193 
     49 N          28.8022   32.1799    2.3213 N.am      8 UNK        -0.4253 
     50 CA         29.5096   33.0860    1.4134 C.3       8 UNK         0.0242 
     51 CB         29.4319   32.5249   -0.0157 C.3       8 UNK        -0.2000 
     52 C          30.9748   33.3541    1.8032 C.2       8 UNK         0.4948 
     53 O          31.4746   34.4446    1.5217 O.2       8 UNK        -0.5275 
     54 N          31.6398   32.3679    2.4141 N.am      9 UNK        -0.4246 
     55 CA         33.0442   32.4015    2.8160 C.3       9 UNK         0.0261 
     56 CB         33.8694   31.5995    1.7890 C.3       9 UNK        -0.1959 
     57 C          33.1985   31.8384    4.2379 C.2       9 UNK         0.5033 
     58 O          32.2107   31.4836    4.8837 O.2       9 UNK        -0.5390 
     59 N          34.4504   31.7590    4.7061 N.am      10 UNK        -0.4215 
     60 CA         34.8391   31.3051    6.0472 C.3       10 UNK         0.0240 
     61 CB         36.2519   31.8380    6.3504 C.3       10 UNK        -0.1982 
     62 C          34.7586   29.7784    6.2746 C.2       10 UNK         0.4970 
     63 O          35.2333   29.3086    7.3099 O.2       10 UNK        -0.4916 
     64 N          34.1837   29.0256    5.3278 N.am      11 UNK        -0.4279 
     65 CA         34.0184   27.5629    5.3868 C.3       11 UNK         0.1003 
     66 C          33.0208   27.0513    6.4695 C.2       11 UNK         0.5709 
     67 N          32.2262   27.9027    7.1076 N.am      11 UNK        -0.7358 
     68 O          32.9782   25.8549    6.7444 O.2       11 UNK        -0.4999 
     69 C69        33.6765   26.9763    3.9920 C.3       12 UNK        -0.0954 
     70 S70        34.9776   27.3124    2.7565 S.3       12 UNK        -0.2268 
     71 C71        35.4275   25.6300    2.2146 C.3       12 UNK         0.0203 
     72 H72        27.0188   19.7087    4.3504 H         1 UNK         0.0888 
     73 H73        27.0448   20.7562    5.7697 H         1 UNK         0.0888 
     74 H74        25.5570   20.5692    4.8371 H         1 UNK         0.0888 
     75 H75        28.0038   20.6396    2.6043 H         1 UNK         0.3017 
     76 H76        28.7173   22.0057    1.0374 H         1 UNK         0.0873 
     77 H77        28.8898   24.2220    3.1310 H         1 UNK         0.0745 
     78 H78        29.7376   24.1748    1.6099 H         1 UNK         0.0745 
     79 H79        32.4724   21.4069    2.1947 H         1 UNK         0.0705 
     80 H80        31.1591   21.6553    1.0761 H         1 UNK         0.0705 
     81 H81        33.8786   23.4787    2.9121 H         1 UNK         0.1334 
     82 H82        34.4535   26.3589   -0.2088 H         1 UNK         0.1417 
     83 H83        31.3144   23.4545   -0.5285 H         1 UNK         0.1562 
     84 H84        32.1478   24.9008   -2.5530 H         1 UNK         0.0748 
     85 H85        33.1227   26.3024   -2.1878 H         1 UNK         0.0748 
     86 H86        32.1115   27.6782    0.2711 H         1 UNK         0.0940 
     87 H87        31.0881   26.4046    0.8956 H         1 UNK         0.0940 
     88 H88        30.2331   29.2166    0.0826 H         1 UNK         0.0703 
     89 H89        28.5650   26.9709    0.0487 H         1 UNK         0.3081 
     90 H90        25.9573   27.5278    1.4235 H         1 UNK         0.0719 
     91 H91        25.3878   29.5423   -0.8058 H         1 UNK         0.0809 
     92 H92        24.1806   28.4774   -0.0830 H         1 UNK         0.0809 
     93 H93        24.9813   29.6973    0.8929 H         1 UNK         0.0809 
     94 H94        26.2721   25.9175   -0.0156 H         1 UNK         0.2990 
     95 H95        25.6493   25.5510   -3.3069 H         1 UNK         0.0690 
     96 H96        28.0513   26.0810   -3.8826 H         1 UNK         0.0788 
     97 H97        27.7172   24.3586   -3.8964 H         1 UNK         0.0788 
     98 H98        28.5773   25.0778   -2.5380 H         1 UNK         0.0788 
     99 H99        26.9176   23.7633   -1.4160 H         1 UNK         0.2993 
    100 H100       24.2794   23.3394    0.7557 H         1 UNK         0.0949 
    101 H101       24.7756   21.2479   -1.4315 H         1 UNK         0.0767 
    102 H102       24.0223   20.9564    0.1377 H         1 UNK         0.0767 
    103 H103       23.2146   21.9619   -1.0508 H         1 UNK         0.0767 
    104 H104       26.3461   21.5487    0.5381 H         1 UNK         0.3013 
    105 H105       29.0605   27.2408    2.7738 H         1 UNK         0.3121 
    106 H106       30.8232   28.3014    4.7800 H         1 UNK         0.0774 
    107 H107       28.1352   26.8392    5.0173 H         1 UNK         0.0815 
    108 H108       29.2538   27.1326    6.3416 H         1 UNK         0.0815 
    109 H109       29.7318   26.0851    5.0184 H         1 UNK         0.0815 
    110 H110       28.0733   29.6811    3.2272 H         1 UNK         0.2987 
    111 H111       27.6752   31.6904    5.4035 H         1 UNK         0.0949 
    112 H112       26.0458   31.1590    2.8587 H         1 UNK         0.0806 
    113 H113       25.5963   30.6641    4.4893 H         1 UNK         0.0806 
    114 H114       25.6928   32.3697    4.0823 H         1 UNK         0.0806 
    115 H115       28.5227   31.2802    1.9397 H         1 UNK         0.3010 
    116 H116       28.9879   34.0455    1.4278 H         1 UNK         0.0829 
    117 H117       28.3983   32.3797   -0.3311 H         1 UNK         0.0813 
    118 H118       29.8966   33.2072   -0.7288 H         1 UNK         0.0813 
    119 H119       29.9451   31.5671   -0.0993 H         1 UNK         0.0813 
    120 H120       31.1663   31.4920    2.6240 H         1 UNK         0.3038 
    121 H121       33.4028   33.4326    2.8379 H         1 UNK         0.0769 
    122 H122       33.6092   30.5400    1.8016 H         1 UNK         0.0811 
    123 H123       34.9397   31.6761    1.9813 H         1 UNK         0.0811 
    124 H124       33.7030   31.9680    0.7767 H         1 UNK         0.0811 
    125 H125       35.2060   32.0536    4.1040 H         1 UNK         0.3204 
    126 H126       34.1516   31.7583    6.7647 H         1 UNK         0.0748 
    127 H127       36.9976   31.4047    5.6825 H         1 UNK         0.0771 
    128 H128       36.2984   32.9226    6.2488 H         1 UNK         0.0771 
    129 H129       36.5537   31.6025    7.3720 H         1 UNK         0.0771 
    130 H130       33.7925   29.4833    4.5185 H         1 UNK         0.2980 
    131 H131       34.9869   27.1521    5.6785 H         1 UNK         0.0545 
    132 H132       31.5990   27.5547    7.8144 H         1 UNK         0.3459 
    133 H133       32.2472   28.8866    6.8915 H         1 UNK         0.3459 
    134 H134       33.5222   25.8983    4.0595 H         1 UNK         0.0616 
    135 H135       32.7396   27.3908    3.6188 H         1 UNK         0.0616 
    136 H136       36.3180   25.6878    1.5873 H         1 UNK         0.0634 
    137 H137       35.7001   25.0302    3.0844 H         1 UNK         0.0634 
@<TRIPOS>BOND
     1    1    2 1    
     2    1   72 1    
     3    1   73 1    
     4    1   74 1    
     5    2    3 2    
     6    2    4 am   BACKBONE|DICT|INTERRES
     7    4    5 1    
     8    4   75 1    
     9    5    6 1    
    10    5   35 1    
    11    5   76 1    
    12    6    7 1    
    13    6   77 1    
    14    6   78 1    
    15    7    8 1    
    16    8    9 1    
    17    8   79 1    
    18    8   80 1    
    19    9   10 ar   
    20    9   14 ar   
    21   10   11 ar   
    22   10   81 1    
    23   11   12 ar   
    24   11   71 1    
    25   12   13 ar   
    26   12   82 1    
    27   13   14 ar   
    28   13   15 1    
    29   14   83 1    
    30   15   16 1    
    31   15   84 1    
    32   15   85 1    
    33   16   17 1    
    34   17   18 1    
    35   17   86 1    
    36   17   87 1    
    37   18   19 1    
    38   18   37 1    
    39   18   88 1    
    40   19   20 am   BACKBONE|DICT|INTERRES
    41   19   89 1    
    42   20   21 2    
    43   20   22 1    
    44   22   23 1    
    45   22   24 1    
    46   22   90 1    
    47   23   91 1    
    48   23   92 1    
    49   23   93 1    
    50   24   25 am   BACKBONE|DICT|INTERRES
    51   24   94 1    
    52   25   26 2    
    53   25   27 1    
    54   27   28 1    
    55   27   29 1    
    56   27   95 1    
    57   28   96 1    
    58   28   97 1    
    59   28   98 1    
    60   29   30 am   BACKBONE|DICT|INTERRES
    61   29   99 1    
    62   30   31 2    
    63   30   32 1    
    64   32   33 1    
    65   32   34 1    
    66   32  100 1    
    67   33  101 1    
    68   33  102 1    
    69   33  103 1    
    70   34   35 am   BACKBONE|DICT|INTERRES
    71   34  104 1    
    72   35   36 2    
    73   37   38 2    
    74   37   39 am   BACKBONE|DICT|INTERRES
    75   39   40 1    
    76   39  105 1    
    77   40   41 1    
    78   40   42 1    
    79   40  106 1    
    80   41  107 1    
    81   41  108 1    
    82   41  109 1    
    83   42   43 2    
    84   42   44 am   BACKBONE|DICT|INTERRES
    85   44   45 1    
    86   44  110 1    
    87   45   46 1    
    88   45   47 1    
    89   45  111 1    
    90   46  112 1    
    91   46  113 1    
    92   46  114 1    
    93   47   48 2    
    94   47   49 am   BACKBONE|DICT|INTERRES
    95   49   50 1    
    96   49  115 1    
    97   50   51 1    
    98   50   52 1    
    99   50  116 1    
   100   51  117 1    
   101   51  118 1    
   102   51  119 1    
   103   52   53 2    
   104   52   54 am   BACKBONE|DICT|INTERRES
   105   54   55 1    
   106   54  120 1    
   107   55   56 1    
   108   55   57 1    
   109   55  121 1    
   110   56  122 1    
   111   56  123 1    
   112   56  124 1    
   113   57   58 2    
   114   57   59 am   BACKBONE|DICT|INTERRES
   115   59   60 1    
   116   59  125 1    
   117   60   61 1    
   118   60   62 1    
   119   60  126 1    
   120   61  127 1    
   121   61  128 1    
   122   61  129 1    
   123   62   63 2    
   124   62   64 am   BACKBONE|DICT|INTERRES
   125   64   65 1    
   126   64  130 1    
   127   65   66 1    
   128   65   69 1    
   129   65  131 1    
   130   66   67 am   BACKBONE|DICT|INTERRES
   131   66   68 2    
   132   67  132 1    
   133   67  133 1    
   134   69   70 1    
   135   69  134 1    
   136   69  135 1    
   137   70   71 1    
   138   71  136 1    
   139   71  137 1    
@<TRIPOS>SUBSTRUCTURE
     1 UNK         1 GROUP             0       ****    0 ROOT    
