@<TRIPOS>MOLECULE
3R136
137   139    1
SMALL
USER_CHARGES


@<TRIPOS>ATOM
      1 CA         25.9379   21.3086   -0.4951 C.3       0 UNK        -0.1979 
      2 C          27.3728   21.5505   -0.0494 C.2       0 UNK         0.4864 
      3 O          28.2993   21.2830   -0.8145 O.2       0 UNK        -0.5359 
      4 N          27.5491   22.0585    1.1750 N.am      1 UNK        -0.4318 
      5 CA         28.8255   22.4550    1.7696 C.3       1 UNK         0.0824 
      6 C6         29.4055   21.3659    2.7170 C.3       12 UNK        -0.0944 
      7 S7         30.1526   19.9709    1.8143 S.3       12 UNK        -0.2672 
      8 C8         31.9317   20.3759    1.9136 C.3       12 UNK         0.0333 
      9 C9         32.2776   21.7230    1.2852 C.ar      12 UNK        -0.0807 
     10 C10        32.9962   22.6792    2.0122 C.ar      12 UNK        -0.0894 
     11 C11        33.3232   23.9130    1.4377 C.ar      12 UNK        -0.0804 
     12 C12        32.9138   24.1915    0.1309 C.ar      12 UNK        -0.0824 
     13 C13        32.1701   23.2568   -0.5939 C.ar      12 UNK        -0.0762 
     14 C14        31.8826   22.0144   -0.0243 C.ar      12 UNK        -0.0782 
     15 C15        31.6446   23.5960   -1.9789 C.3       12 UNK         0.0230 
     16 S16        30.0018   24.3760   -1.8750 S.3       12 UNK        -0.2608 
     17 C17        30.4462   26.0559   -1.3275 C.3       12 UNK        -0.0989 
     18 CA         29.2821   27.0528   -1.5360 C.3       5 UNK         0.0716 
     19 N          28.1753   26.8075   -0.6112 N.am      5 UNK        -0.4135 
     20 C          26.8773   26.8388   -0.9425 C.2       4 UNK         0.5031 
     21 O          26.4618   27.0580   -2.0811 O.2       4 UNK        -0.5229 
     22 CA         25.8577   26.5784    0.1834 C.3       4 UNK         0.0329 
     23 CB         25.4343   25.1016    0.1869 C.3       4 UNK        -0.2001 
     24 N          26.3665   26.9488    1.5074 N.am      4 UNK        -0.4303 
     25 C          26.5552   28.2190    1.8988 C.2       3 UNK         0.5044 
     26 O          26.2034   29.1898    1.2305 O.2       3 UNK        -0.5152 
     27 CA         27.2828   28.4659    3.2345 C.3       3 UNK         0.0319 
     28 CB         26.2974   28.9206    4.3220 C.3       3 UNK        -0.2001 
     29 N          28.0575   27.3277    3.7286 N.am      3 UNK        -0.4354 
     30 C          29.1122   26.7829    3.1089 C.2       2 UNK         0.4964 
     31 O          29.5369   27.1676    2.0172 O.2       2 UNK        -0.5047 
     32 CA         29.7845   25.5859    3.8007 C.3       2 UNK         0.0288 
     33 CB         29.2438   25.2838    5.2192 C.3       2 UNK        -0.2113 
     34 N          29.7231   24.3855    2.9637 N.am      2 UNK        -0.4145 
     35 C          28.6115   23.7750    2.5267 C.2       1 UNK         0.5006 
     36 O          27.4669   24.1985    2.7245 O.2       1 UNK        -0.5103 
     37 C          29.7842   28.4989   -1.3959 C.2       5 UNK         0.5055 
     38 O          29.9628   29.1711   -2.4129 O.2       5 UNK        -0.5220 
     39 N          30.0218   28.9481   -0.1568 N.am      6 UNK        -0.4450 
     40 CA         30.6189   30.2438    0.1507 C.3       6 UNK         0.0367 
     41 CB         32.1095   30.0428    0.4820 C.3       6 UNK        -0.1929 
     42 C          29.8425   30.8899    1.3001 C.2       6 UNK         0.5070 
     43 O          30.2878   30.8385    2.4476 O.2       6 UNK        -0.5237 
     44 N          28.6892   31.4883    0.9738 N.am      7 UNK        -0.4739 
     45 CA         27.7609   32.1421    1.9095 C.3       7 UNK         0.0276 
     46 CB         26.5591   32.6942    1.1261 C.3       7 UNK        -0.1927 
     47 C          28.3852   33.2509    2.7744 C.2       7 UNK         0.5013 
     48 O          27.9717   33.4285    3.9202 O.2       7 UNK        -0.5193 
     49 N          29.3742   33.9621    2.2177 N.am      8 UNK        -0.4253 
     50 CA         30.1345   35.0051    2.9078 C.3       8 UNK         0.0242 
     51 CB         30.8297   35.8913    1.8609 C.3       8 UNK        -0.2000 
     52 C          31.1662   34.4544    3.9103 C.2       8 UNK         0.4948 
     53 O          31.5620   35.1926    4.8137 O.2       8 UNK        -0.5275 
     54 N          31.6022   33.1996    3.7281 N.am      9 UNK        -0.4246 
     55 CA         32.6304   32.5542    4.5464 C.3       9 UNK         0.0261 
     56 CB         33.6400   31.8401    3.6314 C.3       9 UNK        -0.1959 
     57 C          32.0308   31.5547    5.5433 C.2       9 UNK         0.5033 
     58 O          32.4860   31.5157    6.6870 O.2       9 UNK        -0.5390 
     59 N          31.0550   30.7516    5.0863 N.am      10 UNK        -0.4215 
     60 CA         30.4627   29.5962    5.7723 C.3       10 UNK         0.0240 
     61 CB         29.6005   30.0429    6.9709 C.3       10 UNK        -0.1982 
     62 C          31.5387   28.5550    6.1404 C.2       10 UNK         0.4970 
     63 O          31.6837   28.1971    7.3093 O.2       10 UNK        -0.4916 
     64 N          32.2935   28.1282    5.1191 N.am      11 UNK        -0.4279 
     65 CA         33.5239   27.3150    5.1748 C.3       11 UNK         0.1003 
     66 C          33.4552   25.9035    5.8429 C.2       11 UNK         0.5709 
     67 N          32.3616   25.5077    6.4766 N.am      11 UNK        -0.7358 
     68 O          34.4281   25.1544    5.8013 O.2       11 UNK        -0.4999 
     69 C69        34.2106   27.2855    3.7796 C.3       12 UNK        -0.0954 
     70 S70        33.2009   26.4833    2.4849 S.3       12 UNK        -0.2268 
     71 C71        34.1308   24.9395    2.2206 C.3       12 UNK         0.0203 
     72 H72        25.7202   21.8933   -1.3885 H         1 UNK         0.0888 
     73 H73        25.7913   20.2552   -0.7319 H         1 UNK         0.0888 
     74 H74        25.2184   21.5867    0.2750 H         1 UNK         0.0888 
     75 H75        26.7477   22.3245    1.7329 H         1 UNK         0.3017 
     76 H76        29.5323   22.6811    0.9718 H         1 UNK         0.0873 
     77 H77        30.1669   21.7704    3.3865 H         1 UNK         0.0745 
     78 H78        28.6230   20.9747    3.3698 H         1 UNK         0.0745 
     79 H79        32.4974   19.5956    1.4030 H         1 UNK         0.0705 
     80 H80        32.2401   20.3438    2.9598 H         1 UNK         0.0705 
     81 H81        33.3110   22.4594    3.0236 H         1 UNK         0.1334 
     82 H82        33.1534   25.1493   -0.3104 H         1 UNK         0.1417 
     83 H83        31.3069   21.2886   -0.5841 H         1 UNK         0.1562 
     84 H84        31.5642   22.6880   -2.5785 H         1 UNK         0.0748 
     85 H85        32.3406   24.2489   -2.5078 H         1 UNK         0.0748 
     86 H86        31.3258   26.3712   -1.8932 H         1 UNK         0.0940 
     87 H87        30.7476   26.0233   -0.2784 H         1 UNK         0.0940 
     88 H88        28.9322   26.9409   -2.5649 H         1 UNK         0.0703 
     89 H89        28.4303   26.6636    0.3582 H         1 UNK         0.3081 
     90 H90        24.9723   27.1839   -0.0227 H         1 UNK         0.0719 
     91 H91        24.9542   24.8329   -0.7550 H         1 UNK         0.0809 
     92 H92        24.7246   24.8889    0.9866 H         1 UNK         0.0809 
     93 H93        26.2922   24.4425    0.3108 H         1 UNK         0.0809 
     94 H94        26.6700   26.1937    2.1120 H         1 UNK         0.2990 
     95 H95        27.9962   29.2720    3.0638 H         1 UNK         0.0690 
     96 H96        26.8185   29.2046    5.2366 H         1 UNK         0.0788 
     97 H97        25.5809   28.1367    4.5701 H         1 UNK         0.0788 
     98 H98        25.7276   29.7913    3.9940 H         1 UNK         0.0788 
     99 H99        27.7475   26.9108    4.5948 H         1 UNK         0.2993 
    100 H100       30.8370   25.8431    3.9029 H         1 UNK         0.0949 
    101 H101       29.7907   24.4569    5.6725 H         1 UNK         0.0767 
    102 H102       29.3608   26.1419    5.8822 H         1 UNK         0.0767 
    103 H103       28.1891   25.0059    5.2154 H         1 UNK         0.0767 
    104 H104       30.6186   23.9983    2.6985 H         1 UNK         0.3013 
    105 H105       29.8408   28.3426    0.6431 H         1 UNK         0.3121 
    106 H106       30.5510   30.9185   -0.7054 H         1 UNK         0.0774 
    107 H107       32.2497   29.3748    1.3330 H         1 UNK         0.0815 
    108 H108       32.5867   30.9934    0.7218 H         1 UNK         0.0815 
    109 H109       32.6477   29.6167   -0.3646 H         1 UNK         0.0815 
    110 H110       28.3925   31.4517    0.0087 H         1 UNK         0.2987 
    111 H111       27.3898   31.3825    2.5968 H         1 UNK         0.0949 
    112 H112       26.8622   33.4429    0.3932 H         1 UNK         0.0806 
    113 H113       26.0315   31.8999    0.5977 H         1 UNK         0.0806 
    114 H114       25.8388   33.1658    1.7963 H         1 UNK         0.0806 
    115 H115       29.6352   33.7538    1.2648 H         1 UNK         0.3010 
    116 H116       29.4342   35.6275    3.4695 H         1 UNK         0.0829 
    117 H117       30.1073   36.3500    1.1854 H         1 UNK         0.0813 
    118 H118       31.3811   36.7017    2.3401 H         1 UNK         0.0813 
    119 H119       31.5419   35.3249    1.2593 H         1 UNK         0.0813 
    120 H120       31.1747   32.6346    3.0044 H         1 UNK         0.3038 
    121 H121       33.1800   33.3044    5.1192 H         1 UNK         0.0769 
    122 H122       33.1757   31.0328    3.0656 H         1 UNK         0.0811 
    123 H123       34.4497   31.4003    4.2155 H         1 UNK         0.0811 
    124 H124       34.0922   32.5326    2.9213 H         1 UNK         0.0811 
    125 H125       30.7666   30.8595    4.1122 H         1 UNK         0.3204 
    126 H126       29.7983   29.1201    5.0514 H         1 UNK         0.0748 
    127 H127       28.8348   30.7545    6.6616 H         1 UNK         0.0771 
    128 H128       29.0895   29.1913    7.4217 H         1 UNK         0.0771 
    129 H129       30.1994   30.5134    7.7512 H         1 UNK         0.0771 
    130 H130       32.0661   28.4682    4.1968 H         1 UNK         0.2980 
    131 H131       34.1944   27.8731    5.8302 H         1 UNK         0.0545 
    132 H132       32.3455   24.5993    6.9108 H         1 UNK         0.3459 
    133 H133       31.6331   26.1794    6.6655 H         1 UNK         0.3459 
    134 H134       34.4113   28.3066    3.4516 H         1 UNK         0.0616 
    135 H135       35.1905   26.8081    3.8368 H         1 UNK         0.0616 
    136 H136       35.0516   25.1647    1.6809 H         1 UNK         0.0634 
    137 H137       34.4295   24.5273    3.1847 H         1 UNK         0.0634 
@<TRIPOS>BOND
     1    1    2 1    
     2    1   72 1    
     3    1   73 1    
     4    1   74 1    
     5    2    3 2    
     6    2    4 am   BACKBONE|DICT|INTERRES
     7    4    5 1    
     8    4   75 1    
     9    5    6 1    
    10    5   35 1    
    11    5   76 1    
    12    6    7 1    
    13    6   77 1    
    14    6   78 1    
    15    7    8 1    
    16    8    9 1    
    17    8   79 1    
    18    8   80 1    
    19    9   10 ar   
    20    9   14 ar   
    21   10   11 ar   
    22   10   81 1    
    23   11   12 ar   
    24   11   71 1    
    25   12   13 ar   
    26   12   82 1    
    27   13   14 ar   
    28   13   15 1    
    29   14   83 1    
    30   15   16 1    
    31   15   84 1    
    32   15   85 1    
    33   16   17 1    
    34   17   18 1    
    35   17   86 1    
    36   17   87 1    
    37   18   19 1    
    38   18   37 1    
    39   18   88 1    
    40   19   20 am   BACKBONE|DICT|INTERRES
    41   19   89 1    
    42   20   21 2    
    43   20   22 1    
    44   22   23 1    
    45   22   24 1    
    46   22   90 1    
    47   23   91 1    
    48   23   92 1    
    49   23   93 1    
    50   24   25 am   BACKBONE|DICT|INTERRES
    51   24   94 1    
    52   25   26 2    
    53   25   27 1    
    54   27   28 1    
    55   27   29 1    
    56   27   95 1    
    57   28   96 1    
    58   28   97 1    
    59   28   98 1    
    60   29   30 am   BACKBONE|DICT|INTERRES
    61   29   99 1    
    62   30   31 2    
    63   30   32 1    
    64   32   33 1    
    65   32   34 1    
    66   32  100 1    
    67   33  101 1    
    68   33  102 1    
    69   33  103 1    
    70   34   35 am   BACKBONE|DICT|INTERRES
    71   34  104 1    
    72   35   36 2    
    73   37   38 2    
    74   37   39 am   BACKBONE|DICT|INTERRES
    75   39   40 1    
    76   39  105 1    
    77   40   41 1    
    78   40   42 1    
    79   40  106 1    
    80   41  107 1    
    81   41  108 1    
    82   41  109 1    
    83   42   43 2    
    84   42   44 am   BACKBONE|DICT|INTERRES
    85   44   45 1    
    86   44  110 1    
    87   45   46 1    
    88   45   47 1    
    89   45  111 1    
    90   46  112 1    
    91   46  113 1    
    92   46  114 1    
    93   47   48 2    
    94   47   49 am   BACKBONE|DICT|INTERRES
    95   49   50 1    
    96   49  115 1    
    97   50   51 1    
    98   50   52 1    
    99   50  116 1    
   100   51  117 1    
   101   51  118 1    
   102   51  119 1    
   103   52   53 2    
   104   52   54 am   BACKBONE|DICT|INTERRES
   105   54   55 1    
   106   54  120 1    
   107   55   56 1    
   108   55   57 1    
   109   55  121 1    
   110   56  122 1    
   111   56  123 1    
   112   56  124 1    
   113   57   58 2    
   114   57   59 am   BACKBONE|DICT|INTERRES
   115   59   60 1    
   116   59  125 1    
   117   60   61 1    
   118   60   62 1    
   119   60  126 1    
   120   61  127 1    
   121   61  128 1    
   122   61  129 1    
   123   62   63 2    
   124   62   64 am   BACKBONE|DICT|INTERRES
   125   64   65 1    
   126   64  130 1    
   127   65   66 1    
   128   65   69 1    
   129   65  131 1    
   130   66   67 am   BACKBONE|DICT|INTERRES
   131   66   68 2    
   132   67  132 1    
   133   67  133 1    
   134   69   70 1    
   135   69  134 1    
   136   69  135 1    
   137   70   71 1    
   138   71  136 1    
   139   71  137 1    
@<TRIPOS>SUBSTRUCTURE
     1 UNK         1 GROUP             0       ****    0 ROOT    
