@<TRIPOS>MOLECULE
3R136
137   139    1
SMALL
USER_CHARGES


@<TRIPOS>ATOM
      1 CA         30.7869   19.4430    2.0127 C.3       0 UNK        -0.1979 
      2 C          30.1068   19.8283    0.7072 C.2       0 UNK         0.4864 
      3 O          30.4067   19.2453   -0.3355 O.2       0 UNK        -0.5359 
      4 N          29.1977   20.8059    0.7595 N.am      1 UNK        -0.4318 
      5 CA         28.4092   21.3146   -0.3610 C.3       1 UNK         0.0824 
      6 C6         29.2422   22.1492   -1.3792 C.3       12 UNK        -0.0944 
      7 S7         29.8559   23.7451   -0.7444 S.3       12 UNK        -0.2672 
      8 C8         31.5348   23.3232   -0.1811 C.3       12 UNK         0.0333 
      9 C9         31.8492   24.0828    1.0955 C.ar      12 UNK        -0.0807 
     10 C10        32.7864   25.1194    1.1100 C.ar      12 UNK        -0.0894 
     11 C11        33.0037   25.8584    2.2784 C.ar      12 UNK        -0.0804 
     12 C12        32.2752   25.5562    3.4341 C.ar      12 UNK        -0.0824 
     13 C13        31.3327   24.5237    3.4231 C.ar      12 UNK        -0.0762 
     14 C14        31.1463   23.7752    2.2609 C.ar      12 UNK        -0.0782 
     15 C15        30.4639   24.2457    4.6388 C.3       12 UNK         0.0230 
     16 S16        29.1709   25.5125    4.8595 S.3       12 UNK        -0.2608 
     17 C17        28.3923   25.6458    3.2039 C.3       12 UNK        -0.0989 
     18 CA         28.8567   26.9037    2.4188 C.3       5 UNK         0.0716 
     19 N          28.4100   26.8899    1.0209 N.am      5 UNK        -0.4135 
     20 C          28.7951   27.7851    0.0933 C.2       4 UNK         0.5031 
     21 O          29.6452   28.6524    0.2954 O.2       4 UNK        -0.5229 
     22 CA         28.0667   27.7818   -1.2669 C.3       4 UNK         0.0329 
     23 CB         28.8555   27.0077   -2.3327 C.3       4 UNK        -0.2001 
     24 N          26.6948   27.2763   -1.2011 N.am      4 UNK        -0.4303 
     25 C          25.7181   27.8282   -0.4683 C.2       3 UNK         0.5044 
     26 O          25.8481   28.8868    0.1470 O.2       3 UNK        -0.5152 
     27 CA         24.3929   27.0536   -0.3506 C.3       3 UNK         0.0319 
     28 CB         23.3343   27.6692   -1.2790 C.3       3 UNK        -0.2001 
     29 N          24.4724   25.6069   -0.6034 N.am      3 UNK        -0.4354 
     30 C          25.2688   24.7228    0.0189 C.2       2 UNK         0.4964 
     31 O          26.1336   25.0517    0.8329 O.2       2 UNK        -0.5047 
     32 CA         25.0554   23.2301   -0.3160 C.3       2 UNK         0.0288 
     33 CB         24.0371   22.9779   -1.4493 C.3       2 UNK        -0.2113 
     34 N          26.3115   22.5595   -0.6608 N.am      2 UNK        -0.4145 
     35 C          27.1784   22.0431    0.2209 C.2       1 UNK         0.5006 
     36 O          27.0236   22.0912    1.4466 O.2       1 UNK        -0.5103 
     37 C          28.4198   28.2053    3.1224 C.2       5 UNK         0.5055 
     38 O          29.2556   28.8859    3.7165 O.2       5 UNK        -0.5220 
     39 N          27.1272   28.5451    3.0100 N.am      6 UNK        -0.4450 
     40 CA         26.5358   29.7532    3.5895 C.3       6 UNK         0.0367 
     41 CB         25.0037   29.6774    3.4914 C.3       6 UNK        -0.1929 
     42 C          27.0617   31.0464    2.9455 C.2       6 UNK         0.5070 
     43 O          27.2288   32.0417    3.6500 O.2       6 UNK        -0.5237 
     44 N          27.3261   31.0067    1.6316 N.am      7 UNK        -0.4739 
     45 CA         27.9220   32.1105    0.8760 C.3       7 UNK         0.0276 
     46 CB         27.8264   31.8216   -0.6301 C.3       7 UNK        -0.1927 
     47 C          29.3781   32.3919    1.2859 C.2       7 UNK         0.5013 
     48 O          29.7398   33.5575    1.4526 O.2       7 UNK        -0.5193 
     49 N          30.1823   31.3298    1.4428 N.am      8 UNK        -0.4253 
     50 CA         31.5766   31.4128    1.8851 C.3       8 UNK         0.0242 
     51 CB         32.2957   30.0997    1.5509 C.3       8 UNK        -0.2000 
     52 C          31.7103   31.7378    3.3820 C.2       8 UNK         0.4948 
     53 O          32.6067   32.4978    3.7533 O.2       8 UNK        -0.5275 
     54 N          30.8230   31.1610    4.2054 N.am      9 UNK        -0.4246 
     55 CA         30.6644   31.3249    5.6538 C.3       9 UNK         0.0261 
     56 CB         30.2494   32.7663    6.0134 C.3       9 UNK        -0.1959 
     57 C          31.8736   30.8475    6.4758 C.2       9 UNK         0.5033 
     58 O          31.7635   29.8528    7.1936 O.2       9 UNK        -0.5390 
     59 N          32.9935   31.5721    6.3759 N.am      10 UNK        -0.4215 
     60 CA         34.2332   31.3032    7.1062 C.3       10 UNK         0.0240 
     61 CB         35.0480   32.6025    7.2147 C.3       10 UNK        -0.1982 
     62 C          35.0779   30.1923    6.4625 C.2       10 UNK         0.4970 
     63 O          35.7689   29.4743    7.1859 O.2       10 UNK        -0.4916 
     64 N          35.0223   30.0836    5.1268 N.am      11 UNK        -0.4279 
     65 CA         35.8139   29.1457    4.3102 C.3       11 UNK         0.1003 
     66 C          37.3524   29.4203    4.3132 C.2       11 UNK         0.5709 
     67 N          37.8012   30.6248    4.6481 N.am      11 UNK        -0.7358 
     68 O          38.1542   28.5490    3.9858 O.2       11 UNK        -0.4999 
     69 C69        35.4328   27.6577    4.5849 C.3       12 UNK        -0.0954 
     70 S70        35.5482   26.6142    3.0915 S.3       12 UNK        -0.2268 
     71 C71        33.9787   27.0233    2.2714 C.3       12 UNK         0.0203 
     72 H72        30.4213   20.0334    2.8528 H         1 UNK         0.0888 
     73 H73        30.6076   18.3912    2.2336 H         1 UNK         0.0888 
     74 H74        31.8628   19.5972    1.9339 H         1 UNK         0.0888 
     75 H75        28.9117   21.2038    1.6462 H         1 UNK         0.3017 
     76 H76        28.0132   20.4450   -0.8900 H         1 UNK         0.0873 
     77 H77        28.6410   22.3600   -2.2646 H         1 UNK         0.0745 
     78 H78        30.0849   21.5638   -1.7492 H         1 UNK         0.0745 
     79 H79        31.6223   22.2538    0.0094 H         1 UNK         0.0705 
     80 H80        32.2498   23.5594   -0.9705 H         1 UNK         0.0705 
     81 H81        33.3263   25.3685    0.2066 H         1 UNK         0.1334 
     82 H82        32.4149   26.1455    4.3301 H         1 UNK         0.1417 
     83 H83        30.4058   22.9884    2.2408 H         1 UNK         0.1562 
     84 H84        31.0872   24.2134    5.5335 H         1 UNK         0.0748 
     85 H85        29.9898   23.2659    4.5612 H         1 UNK         0.0748 
     86 H86        27.3087   25.6524    3.3353 H         1 UNK         0.0940 
     87 H87        28.5995   24.7428    2.6291 H         1 UNK         0.0940 
     88 H88        29.9481   26.9006    2.3921 H         1 UNK         0.0703 
     89 H89        27.6865   26.2148    0.7879 H         1 UNK         0.3081 
     90 H90        28.0098   28.8203   -1.5955 H         1 UNK         0.0719 
     91 H91        28.8008   25.9326   -2.1747 H         1 UNK         0.0809 
     92 H92        28.4719   27.2143   -3.3319 H         1 UNK         0.0809 
     93 H93        29.9097   27.2893   -2.3268 H         1 UNK         0.0809 
     94 H94        26.5031   26.4035   -1.6699 H         1 UNK         0.2990 
     95 H95        24.0518   27.1763    0.6793 H         1 UNK         0.0690 
     96 H96        22.3539   27.2202   -1.1185 H         1 UNK         0.0788 
     97 H97        23.5963   27.5411   -2.3301 H         1 UNK         0.0788 
     98 H98        23.2297   28.7402   -1.0976 H         1 UNK         0.0788 
     99 H99        23.8039   25.2394   -1.2653 H         1 UNK         0.2993 
    100 H100       24.6533   22.7724    0.5907 H         1 UNK         0.0949 
    101 H101       23.0513   23.3722   -1.1982 H         1 UNK         0.0767 
    102 H102       24.3519   23.4269   -2.3926 H         1 UNK         0.0767 
    103 H103       23.9068   21.9094   -1.6237 H         1 UNK         0.0767 
    104 H104       26.5293   22.4992   -1.6446 H         1 UNK         0.3013 
    105 H105       26.5181   27.9637    2.4529 H         1 UNK         0.3121 
    106 H106       26.8076   29.7803    4.6471 H         1 UNK         0.0774 
    107 H107       24.5421   30.5518    3.9522 H         1 UNK         0.0815 
    108 H108       24.6639   29.6397    2.4559 H         1 UNK         0.0815 
    109 H109       24.6149   28.7985    4.0058 H         1 UNK         0.0815 
    110 H110       27.0779   30.1680    1.1157 H         1 UNK         0.2987 
    111 H111       27.3375   33.0089    1.0865 H         1 UNK         0.0949 
    112 H112       28.4553   30.9802   -0.9190 H         1 UNK         0.0806 
    113 H113       26.8026   31.5973   -0.9307 H         1 UNK         0.0806 
    114 H114       28.1551   32.6843   -1.2109 H         1 UNK         0.0806 
    115 H115       29.8232   30.4023    1.2332 H         1 UNK         0.3010 
    116 H116       32.0647   32.2162    1.3290 H         1 UNK         0.0829 
    117 H117       32.2943   29.9101    0.4773 H         1 UNK         0.0813 
    118 H118       33.3367   30.1294    1.8744 H         1 UNK         0.0813 
    119 H119       31.8134   29.2504    2.0365 H         1 UNK         0.0813 
    120 H120       30.1918   30.4678    3.8054 H         1 UNK         0.3038 
    121 H121       29.8305   30.6756    5.9263 H         1 UNK         0.0769 
    122 H122       31.0004   33.5010    5.7227 H         1 UNK         0.0811 
    123 H123       30.0908   32.8697    7.0875 H         1 UNK         0.0811 
    124 H124       29.3148   33.0366    5.5210 H         1 UNK         0.0811 
    125 H125       33.0028   32.3107    5.6779 H         1 UNK         0.3204 
    126 H126       33.9788   30.9790    8.1178 H         1 UNK         0.0748 
    127 H127       35.9765   32.4375    7.7634 H         1 UNK         0.0771 
    128 H128       35.3131   32.9993    6.2339 H         1 UNK         0.0771 
    129 H129       34.4917   33.3738    7.7480 H         1 UNK         0.0771 
    130 H130       34.4413   30.7330    4.6167 H         1 UNK         0.2980 
    131 H131       35.5093   29.3793    3.2899 H         1 UNK         0.0545 
    132 H132       38.7940   30.7983    4.6403 H         1 UNK         0.3459 
    133 H133       37.1628   31.3589    4.9067 H         1 UNK         0.3459 
    134 H134       34.4118   27.5837    4.9625 H         1 UNK         0.0616 
    135 H135       36.0628   27.2307    5.3671 H         1 UNK         0.0616 
    136 H136       34.1891   27.3430    1.2496 H         1 UNK         0.0634 
    137 H137       33.5160   27.8752    2.7668 H         1 UNK         0.0634 
@<TRIPOS>BOND
     1    1    2 1    
     2    1   72 1    
     3    1   73 1    
     4    1   74 1    
     5    2    3 2    
     6    2    4 am   BACKBONE|DICT|INTERRES
     7    4    5 1    
     8    4   75 1    
     9    5    6 1    
    10    5   35 1    
    11    5   76 1    
    12    6    7 1    
    13    6   77 1    
    14    6   78 1    
    15    7    8 1    
    16    8    9 1    
    17    8   79 1    
    18    8   80 1    
    19    9   10 ar   
    20    9   14 ar   
    21   10   11 ar   
    22   10   81 1    
    23   11   12 ar   
    24   11   71 1    
    25   12   13 ar   
    26   12   82 1    
    27   13   14 ar   
    28   13   15 1    
    29   14   83 1    
    30   15   16 1    
    31   15   84 1    
    32   15   85 1    
    33   16   17 1    
    34   17   18 1    
    35   17   86 1    
    36   17   87 1    
    37   18   19 1    
    38   18   37 1    
    39   18   88 1    
    40   19   20 am   BACKBONE|DICT|INTERRES
    41   19   89 1    
    42   20   21 2    
    43   20   22 1    
    44   22   23 1    
    45   22   24 1    
    46   22   90 1    
    47   23   91 1    
    48   23   92 1    
    49   23   93 1    
    50   24   25 am   BACKBONE|DICT|INTERRES
    51   24   94 1    
    52   25   26 2    
    53   25   27 1    
    54   27   28 1    
    55   27   29 1    
    56   27   95 1    
    57   28   96 1    
    58   28   97 1    
    59   28   98 1    
    60   29   30 am   BACKBONE|DICT|INTERRES
    61   29   99 1    
    62   30   31 2    
    63   30   32 1    
    64   32   33 1    
    65   32   34 1    
    66   32  100 1    
    67   33  101 1    
    68   33  102 1    
    69   33  103 1    
    70   34   35 am   BACKBONE|DICT|INTERRES
    71   34  104 1    
    72   35   36 2    
    73   37   38 2    
    74   37   39 am   BACKBONE|DICT|INTERRES
    75   39   40 1    
    76   39  105 1    
    77   40   41 1    
    78   40   42 1    
    79   40  106 1    
    80   41  107 1    
    81   41  108 1    
    82   41  109 1    
    83   42   43 2    
    84   42   44 am   BACKBONE|DICT|INTERRES
    85   44   45 1    
    86   44  110 1    
    87   45   46 1    
    88   45   47 1    
    89   45  111 1    
    90   46  112 1    
    91   46  113 1    
    92   46  114 1    
    93   47   48 2    
    94   47   49 am   BACKBONE|DICT|INTERRES
    95   49   50 1    
    96   49  115 1    
    97   50   51 1    
    98   50   52 1    
    99   50  116 1    
   100   51  117 1    
   101   51  118 1    
   102   51  119 1    
   103   52   53 2    
   104   52   54 am   BACKBONE|DICT|INTERRES
   105   54   55 1    
   106   54  120 1    
   107   55   56 1    
   108   55   57 1    
   109   55  121 1    
   110   56  122 1    
   111   56  123 1    
   112   56  124 1    
   113   57   58 2    
   114   57   59 am   BACKBONE|DICT|INTERRES
   115   59   60 1    
   116   59  125 1    
   117   60   61 1    
   118   60   62 1    
   119   60  126 1    
   120   61  127 1    
   121   61  128 1    
   122   61  129 1    
   123   62   63 2    
   124   62   64 am   BACKBONE|DICT|INTERRES
   125   64   65 1    
   126   64  130 1    
   127   65   66 1    
   128   65   69 1    
   129   65  131 1    
   130   66   67 am   BACKBONE|DICT|INTERRES
   131   66   68 2    
   132   67  132 1    
   133   67  133 1    
   134   69   70 1    
   135   69  134 1    
   136   69  135 1    
   137   70   71 1    
   138   71  136 1    
   139   71  137 1    
@<TRIPOS>SUBSTRUCTURE
     1 UNK         1 GROUP             0       ****    0 ROOT    
