@<TRIPOS>MOLECULE
3R136
137   139    1
SMALL
USER_CHARGES


@<TRIPOS>ATOM
      1 CA         29.1020   28.5513   -1.0985 C.3       0 UNK        -0.1979 
      2 C          29.0916   27.0528   -1.3633 C.2       0 UNK         0.4864 
      3 O          28.7955   26.6338   -2.4833 O.2       0 UNK        -0.5359 
      4 N          29.3948   26.2531   -0.3310 N.am      1 UNK        -0.4318 
      5 CA         29.4867   24.7868   -0.3201 C.3       1 UNK         0.0824 
      6 C6         30.7378   24.2431   -1.0628 C.3       12 UNK        -0.0944 
      7 S7         32.3032   24.8168   -0.3238 S.3       12 UNK        -0.2672 
      8 C8         32.8069   23.3767    0.6718 C.3       12 UNK         0.0333 
      9 C9         32.2210   23.4305    2.0750 C.ar      12 UNK        -0.0807 
     10 C10        32.8951   24.1337    3.0780 C.ar      12 UNK        -0.0894 
     11 C11        32.3846   24.1817    4.3774 C.ar      12 UNK        -0.0804 
     12 C12        31.1881   23.5237    4.6714 C.ar      12 UNK        -0.0824 
     13 C13        30.5018   22.8186    3.6781 C.ar      12 UNK        -0.0762 
     14 C14        31.0263   22.7689    2.3816 C.ar      12 UNK        -0.0782 
     15 C15        29.2124   22.0838    4.0198 C.3       12 UNK         0.0230 
     16 S16        27.7252   22.9690    3.4507 S.3       12 UNK        -0.2608 
     17 C17        27.7509   24.4973    4.4517 C.3       12 UNK        -0.0989 
     18 CA         27.8063   25.7548    3.5520 C.3       5 UNK         0.0716 
     19 N          26.5925   25.8946    2.7424 N.am      5 UNK        -0.4135 
     20 C          26.4241   26.7887    1.7629 C.2       4 UNK         0.5031 
     21 O          27.2835   27.6081    1.4273 O.2       4 UNK        -0.5229 
     22 CA         25.0770   26.7690    1.0327 C.3       4 UNK         0.0329 
     23 CB         24.2132   27.9764    1.4477 C.3       4 UNK        -0.2001 
     24 N          25.3470   26.7645   -0.4024 N.am      4 UNK        -0.4303 
     25 C          24.4504   26.6727   -1.3922 C.2       3 UNK         0.5044 
     26 O          23.2304   26.6435   -1.2273 O.2       3 UNK        -0.5152 
     27 CA         25.0238   26.5483   -2.8140 C.3       3 UNK         0.0319 
     28 CB         25.6092   27.8835   -3.3024 C.3       3 UNK        -0.2001 
     29 N          26.0396   25.4945   -2.8854 N.am      3 UNK        -0.4354 
     30 C          25.7529   24.1830   -2.8369 C.2       2 UNK         0.4964 
     31 O          24.6064   23.7332   -2.8535 O.2       2 UNK        -0.5047 
     32 CA         26.9309   23.1962   -2.7425 C.3       2 UNK         0.0288 
     33 CB         27.3247   22.6894   -4.1395 C.3       2 UNK        -0.2113 
     34 N          28.1119   23.7545   -2.0824 N.am      2 UNK        -0.4145 
     35 C          28.1724   24.1347   -0.7975 C.2       1 UNK         0.5006 
     36 O          27.2388   24.0111   -0.0052 O.2       1 UNK        -0.5103 
     37 C          28.0553   27.0295    4.3826 C.2       5 UNK         0.5055 
     38 O          27.1393   27.5001    5.0603 O.2       5 UNK        -0.5220 
     39 N          29.2829   27.5610    4.2908 N.am      6 UNK        -0.4450 
     40 CA         29.7912   28.7814    4.9342 C.3       6 UNK         0.0367 
     41 CB         29.7391   28.6663    6.4724 C.3       6 UNK        -0.1929 
     42 C          29.1697   30.1033    4.4383 C.2       6 UNK         0.5070 
     43 O          29.5297   31.1581    4.9629 O.2       6 UNK        -0.5237 
     44 N          28.2937   30.0674    3.4216 N.am      7 UNK        -0.4739 
     45 CA         27.6395   31.2592    2.8621 C.3       7 UNK         0.0276 
     46 CB         26.4695   30.8303    1.9677 C.3       7 UNK        -0.1927 
     47 C          28.5974   32.1857    2.0930 C.2       7 UNK         0.5013 
     48 O          28.3393   33.3863    2.0066 O.2       7 UNK        -0.5193 
     49 N          29.6946   31.6159    1.5799 N.am      8 UNK        -0.4253 
     50 CA         30.7983   32.3272    0.9319 C.3       8 UNK         0.0242 
     51 CB         31.2294   31.5322   -0.3149 C.3       8 UNK        -0.2000 
     52 C          31.9819   32.5555    1.8948 C.2       8 UNK         0.4948 
     53 O          33.0861   32.8321    1.4231 O.2       8 UNK        -0.5275 
     54 N          31.7492   32.4180    3.2115 N.am      9 UNK        -0.4246 
     55 CA         32.7443   32.3983    4.2886 C.3       9 UNK         0.0261 
     56 CB         33.4699   33.7579    4.4220 C.3       9 UNK        -0.1959 
     57 C          33.6696   31.1764    4.1359 C.2       9 UNK         0.5033 
     58 O          33.1553   30.0681    3.9785 O.2       9 UNK        -0.5390 
     59 N          34.9934   31.3790    4.2068 N.am      10 UNK        -0.4215 
     60 CA         36.0886   30.4084    4.0294 C.3       10 UNK         0.0240 
     61 CB         36.0488   29.7734    2.6248 C.3       10 UNK        -0.1982 
     62 C          36.2053   29.3205    5.1158 C.2       10 UNK         0.4970 
     63 O          37.3259   28.9185    5.4313 O.2       10 UNK        -0.4916 
     64 N          35.0757   28.8692    5.6705 N.am      11 UNK        -0.4279 
     65 CA         34.9816   27.8448    6.7233 C.3       11 UNK         0.1003 
     66 C          35.5733   28.2574    8.1034 C.2       11 UNK         0.5709 
     67 N          35.8178   29.5352    8.3701 N.am      11 UNK        -0.7358 
     68 O          35.8182   27.3977    8.9466 O.2       11 UNK        -0.4999 
     69 C69        33.5278   27.3312    6.8934 C.3       12 UNK        -0.0954 
     70 S70        32.7892   26.7196    5.3433 S.3       12 UNK        -0.2268 
     71 C71        33.1261   24.9413    5.4646 C.3       12 UNK         0.0203 
     72 H72        29.5925   28.7899   -0.1554 H         1 UNK         0.0888 
     73 H73        29.6311   29.0708   -1.8968 H         1 UNK         0.0888 
     74 H74        28.0837   28.9355   -1.0534 H         1 UNK         0.0888 
     75 H75        29.5576   26.6883    0.5651 H         1 UNK         0.3017 
     76 H76        29.5812   24.5076    0.7296 H         1 UNK         0.0873 
     77 H77        30.7324   23.1518   -1.0822 H         1 UNK         0.0745 
     78 H78        30.7385   24.5645   -2.1057 H         1 UNK         0.0745 
     79 H79        33.8961   23.3675    0.7353 H         1 UNK         0.0705 
     80 H80        32.5328   22.4468    0.1717 H         1 UNK         0.0705 
     81 H81        33.8184   24.6480    2.8472 H         1 UNK         0.1334 
     82 H82        30.7945   23.5570    5.6782 H         1 UNK         0.1417 
     83 H83        30.5030   22.2155    1.6136 H         1 UNK         0.1562 
     84 H84        29.1374   21.9117    5.0948 H         1 UNK         0.0748 
     85 H85        29.2284   21.0956    3.5579 H         1 UNK         0.0748 
     86 H86        28.5998   24.4726    5.1356 H         1 UNK         0.0940 
     87 H87        26.8619   24.5153    5.0852 H         1 UNK         0.0940 
     88 H88        28.6416   25.6338    2.8586 H         1 UNK         0.0703 
     89 H89        25.8446   25.2521    2.9562 H         1 UNK         0.3081 
     90 H90        24.5505   25.8461    1.2839 H         1 UNK         0.0719 
     91 H91        24.5774   28.8998    0.9987 H         1 UNK         0.0809 
     92 H92        23.1755   27.8485    1.1408 H         1 UNK         0.0809 
     93 H93        24.2101   28.1099    2.5304 H         1 UNK         0.0809 
     94 H94        26.3302   26.7720   -0.6353 H         1 UNK         0.2990 
     95 H95        24.2034   26.2817   -3.4841 H         1 UNK         0.0690 
     96 H96        25.9605   27.8074   -4.3315 H         1 UNK         0.0788 
     97 H97        26.4468   28.2132   -2.6890 H         1 UNK         0.0788 
     98 H98        24.8553   28.6715   -3.2747 H         1 UNK         0.0788 
     99 H99        27.0129   25.7870   -2.8710 H         1 UNK         0.2993 
    100 H100       26.5920   22.3437   -2.1496 H         1 UNK         0.0949 
    101 H101       27.6940   23.4973   -4.7727 H         1 UNK         0.0767 
    102 H102       28.1003   21.9254   -4.0810 H         1 UNK         0.0767 
    103 H103       26.4691   22.2418   -4.6475 H         1 UNK         0.0767 
    104 H104       28.9066   23.9519   -2.6735 H         1 UNK         0.3013 
    105 H105       29.9595   27.0862    3.7088 H         1 UNK         0.3121 
    106 H106       30.8424   28.8415    4.6515 H         1 UNK         0.0774 
    107 H107       30.2795   29.4885    6.9429 H         1 UNK         0.0815 
    108 H108       28.7162   28.6949    6.8482 H         1 UNK         0.0815 
    109 H109       30.1991   27.7406    6.8177 H         1 UNK         0.0815 
    110 H110       28.0350   29.1728    3.0234 H         1 UNK         0.2987 
    111 H111       27.2323   31.8389    3.6938 H         1 UNK         0.0949 
    112 H112       25.9454   31.6977    1.5639 H         1 UNK         0.0806 
    113 H113       26.8043   30.2283    1.1222 H         1 UNK         0.0806 
    114 H114       25.7433   30.2498    2.5354 H         1 UNK         0.0806 
    115 H115       29.8192   30.6248    1.7268 H         1 UNK         0.3010 
    116 H116       30.4642   33.3132    0.6025 H         1 UNK         0.0829 
    117 H117       30.3934   31.3872   -0.9990 H         1 UNK         0.0813 
    118 H118       32.0065   32.0598   -0.8697 H         1 UNK         0.0813 
    119 H119       31.6261   30.5510   -0.0516 H         1 UNK         0.0813 
    120 H120       30.8144   32.1595    3.5044 H         1 UNK         0.3038 
    121 H121       32.1847   32.2352    5.2110 H         1 UNK         0.0769 
    122 H122       34.0957   33.7864    5.3148 H         1 UNK         0.0811 
    123 H123       32.7518   34.5726    4.5164 H         1 UNK         0.0811 
    124 H124       34.1036   33.9801    3.5628 H         1 UNK         0.0811 
    125 H125       35.2957   32.3297    4.3696 H         1 UNK         0.3204 
    126 H126       37.0057   30.9966    4.0915 H         1 UNK         0.0748 
    127 H127       36.9271   29.1494    2.4544 H         1 UNK         0.0771 
    128 H128       35.1716   29.1399    2.4880 H         1 UNK         0.0771 
    129 H129       36.0358   30.5355    1.8454 H         1 UNK         0.0771 
    130 H130       34.1983   29.2012    5.2792 H         1 UNK         0.2980 
    131 H131       35.5852   27.0002    6.3861 H         1 UNK         0.0545 
    132 H132       35.6217   30.2462    7.6848 H         1 UNK         0.3459 
    133 H133       36.2043   29.7876    9.2659 H         1 UNK         0.3459 
    134 H134       32.8894   28.1347    7.2652 H         1 UNK         0.0616 
    135 H135       33.4808   26.5393    7.6431 H         1 UNK         0.0616 
    136 H136       34.2000   24.7691    5.3784 H         1 UNK         0.0634 
    137 H137       32.8286   24.5774    6.4493 H         1 UNK         0.0634 
@<TRIPOS>BOND
     1    1    2 1    
     2    1   72 1    
     3    1   73 1    
     4    1   74 1    
     5    2    3 2    
     6    2    4 am   BACKBONE|DICT|INTERRES
     7    4    5 1    
     8    4   75 1    
     9    5    6 1    
    10    5   35 1    
    11    5   76 1    
    12    6    7 1    
    13    6   77 1    
    14    6   78 1    
    15    7    8 1    
    16    8    9 1    
    17    8   79 1    
    18    8   80 1    
    19    9   10 ar   
    20    9   14 ar   
    21   10   11 ar   
    22   10   81 1    
    23   11   12 ar   
    24   11   71 1    
    25   12   13 ar   
    26   12   82 1    
    27   13   14 ar   
    28   13   15 1    
    29   14   83 1    
    30   15   16 1    
    31   15   84 1    
    32   15   85 1    
    33   16   17 1    
    34   17   18 1    
    35   17   86 1    
    36   17   87 1    
    37   18   19 1    
    38   18   37 1    
    39   18   88 1    
    40   19   20 am   BACKBONE|DICT|INTERRES
    41   19   89 1    
    42   20   21 2    
    43   20   22 1    
    44   22   23 1    
    45   22   24 1    
    46   22   90 1    
    47   23   91 1    
    48   23   92 1    
    49   23   93 1    
    50   24   25 am   BACKBONE|DICT|INTERRES
    51   24   94 1    
    52   25   26 2    
    53   25   27 1    
    54   27   28 1    
    55   27   29 1    
    56   27   95 1    
    57   28   96 1    
    58   28   97 1    
    59   28   98 1    
    60   29   30 am   BACKBONE|DICT|INTERRES
    61   29   99 1    
    62   30   31 2    
    63   30   32 1    
    64   32   33 1    
    65   32   34 1    
    66   32  100 1    
    67   33  101 1    
    68   33  102 1    
    69   33  103 1    
    70   34   35 am   BACKBONE|DICT|INTERRES
    71   34  104 1    
    72   35   36 2    
    73   37   38 2    
    74   37   39 am   BACKBONE|DICT|INTERRES
    75   39   40 1    
    76   39  105 1    
    77   40   41 1    
    78   40   42 1    
    79   40  106 1    
    80   41  107 1    
    81   41  108 1    
    82   41  109 1    
    83   42   43 2    
    84   42   44 am   BACKBONE|DICT|INTERRES
    85   44   45 1    
    86   44  110 1    
    87   45   46 1    
    88   45   47 1    
    89   45  111 1    
    90   46  112 1    
    91   46  113 1    
    92   46  114 1    
    93   47   48 2    
    94   47   49 am   BACKBONE|DICT|INTERRES
    95   49   50 1    
    96   49  115 1    
    97   50   51 1    
    98   50   52 1    
    99   50  116 1    
   100   51  117 1    
   101   51  118 1    
   102   51  119 1    
   103   52   53 2    
   104   52   54 am   BACKBONE|DICT|INTERRES
   105   54   55 1    
   106   54  120 1    
   107   55   56 1    
   108   55   57 1    
   109   55  121 1    
   110   56  122 1    
   111   56  123 1    
   112   56  124 1    
   113   57   58 2    
   114   57   59 am   BACKBONE|DICT|INTERRES
   115   59   60 1    
   116   59  125 1    
   117   60   61 1    
   118   60   62 1    
   119   60  126 1    
   120   61  127 1    
   121   61  128 1    
   122   61  129 1    
   123   62   63 2    
   124   62   64 am   BACKBONE|DICT|INTERRES
   125   64   65 1    
   126   64  130 1    
   127   65   66 1    
   128   65   69 1    
   129   65  131 1    
   130   66   67 am   BACKBONE|DICT|INTERRES
   131   66   68 2    
   132   67  132 1    
   133   67  133 1    
   134   69   70 1    
   135   69  134 1    
   136   69  135 1    
   137   70   71 1    
   138   71  136 1    
   139   71  137 1    
@<TRIPOS>SUBSTRUCTURE
     1 UNK         1 GROUP             0       ****    0 ROOT    
