@<TRIPOS>MOLECULE
3R136
137   139    1
SMALL
USER_CHARGES


@<TRIPOS>ATOM
      1 CA         32.2941   28.4309   -1.7671 C.3       0 UNK        -0.1979 
      2 C          32.5507   26.9311   -1.8921 C.2       0 UNK         0.4864 
      3 O          33.4527   26.5316   -2.6257 O.2       0 UNK        -0.5359 
      4 N          31.7965   26.0642   -1.2007 N.am      1 UNK        -0.4318 
      5 CA         30.6607   26.3855   -0.3276 C.3       1 UNK         0.0824 
      6 C6         30.4964   25.3400    0.7997 C.3       12 UNK        -0.0944 
      7 S7         30.1635   23.6353    0.2278 S.3       12 UNK        -0.2672 
      8 C8         31.2774   22.6655    1.2975 C.3       12 UNK         0.0333 
      9 C9         30.9327   22.8328    2.7714 C.ar      12 UNK        -0.0807 
     10 C10        31.7717   23.5681    3.6157 C.ar      12 UNK        -0.0894 
     11 C11        31.4395   23.7566    4.9611 C.ar      12 UNK        -0.0804 
     12 C12        30.2588   23.1990    5.4601 C.ar      12 UNK        -0.0824 
     13 C13        29.4010   22.4820    4.6201 C.ar      12 UNK        -0.0762 
     14 C14        29.7565   22.2777    3.2835 C.ar      12 UNK        -0.0782 
     15 C15        28.0544   21.9957    5.1358 C.3       12 UNK         0.0230 
     16 S16        26.6795   22.9943    4.4650 S.3       12 UNK        -0.2608 
     17 C17        27.1557   24.6877    4.9597 C.3       12 UNK        -0.0989 
     18 CA         27.8577   25.4463    3.7965 C.3       5 UNK         0.0716 
     19 N          26.9997   25.7244    2.6436 N.am      5 UNK        -0.4135 
     20 C          25.8966   26.4847    2.6081 C.2       4 UNK         0.5031 
     21 O          25.4092   27.0357    3.5964 O.2       4 UNK        -0.5229 
     22 CA         25.2215   26.6780    1.2380 C.3       4 UNK         0.0329 
     23 CB         25.3532   28.1385    0.7744 C.3       4 UNK        -0.2001 
     24 N          25.7801   25.7995    0.2050 N.am      4 UNK        -0.4303 
     25 C          25.3360   24.5635   -0.0702 C.2       3 UNK         0.5044 
     26 O          24.3806   24.0485    0.5123 O.2       3 UNK        -0.5152 
     27 CA         26.0893   23.7391   -1.1396 C.3       3 UNK         0.0319 
     28 CB         25.1261   22.9759   -2.0736 C.3       3 UNK        -0.2001 
     29 N          27.0864   24.4962   -1.9092 N.am      3 UNK        -0.4354 
     30 C          26.8767   25.5195   -2.7540 C.2       2 UNK         0.4964 
     31 O          25.7592   25.9195   -3.0826 O.2       2 UNK        -0.5047 
     32 CA         28.1363   26.2407   -3.2861 C.3       2 UNK         0.0288 
     33 CB         27.8527   27.7079   -3.6749 C.3       2 UNK        -0.2113 
     34 N          29.2913   26.1752   -2.3749 N.am      2 UNK        -0.4145 
     35 C          29.3377   26.5859   -1.0956 C.2       1 UNK         0.5006 
     36 O          28.3752   27.0708   -0.5002 O.2       1 UNK        -0.5103 
     37 C          28.5978   26.7193    4.2402 C.2       5 UNK         0.5055 
     38 O          29.6937   26.9806    3.7407 O.2       5 UNK        -0.5220 
     39 N          27.9919   27.5053    5.1391 N.am      6 UNK        -0.4450 
     40 CA         28.5577   28.7277    5.7161 C.3       6 UNK         0.0367 
     41 CB         27.8526   29.0219    7.0525 C.3       6 UNK        -0.1929 
     42 C          28.5263   29.9284    4.7455 C.2       6 UNK         0.5070 
     43 O          28.0353   31.0015    5.1007 O.2       6 UNK        -0.5237 
     44 N          29.0499   29.7277    3.5320 N.am      7 UNK        -0.4739 
     45 CA         29.2418   30.7567    2.5136 C.3       7 UNK         0.0276 
     46 CB         29.4259   30.0750    1.1485 C.3       7 UNK        -0.1927 
     47 C          30.4773   31.6045    2.8411 C.2       7 UNK         0.5013 
     48 O          31.4799   31.0537    3.3117 O.2       7 UNK        -0.5193 
     49 N          30.4178   32.9046    2.5200 N.am      8 UNK        -0.4253 
     50 CA         31.5071   33.8808    2.6607 C.3       8 UNK         0.0242 
     51 CB         30.9150   35.3016    2.6072 C.3       8 UNK        -0.2000 
     52 C          32.6147   33.6607    1.6086 C.2       8 UNK         0.4948 
     53 O          32.8397   34.5087    0.7433 O.2       8 UNK        -0.5275 
     54 N          33.2520   32.4930    1.7045 N.am      9 UNK        -0.4246 
     55 CA         34.2516   31.9098    0.8101 C.3       9 UNK         0.0261 
     56 CB         33.7047   31.7594   -0.6252 C.3       9 UNK        -0.1959 
     57 C          34.7010   30.5393    1.3449 C.2       9 UNK         0.5033 
     58 O          35.8442   30.1518    1.1000 O.2       9 UNK        -0.5390 
     59 N          33.8113   29.8405    2.0676 N.am      10 UNK        -0.4215 
     60 CA         34.0867   28.5997    2.7863 C.3       10 UNK         0.0240 
     61 CB         33.0380   27.5426    2.3815 C.3       10 UNK        -0.1982 
     62 C          34.1226   28.9131    4.2934 C.2       10 UNK         0.4970 
     63 O          34.8417   29.8284    4.6983 O.2       10 UNK        -0.4916 
     64 N          33.3630   28.1610    5.0968 N.am      11 UNK        -0.4279 
     65 CA         33.2524   28.3108    6.5561 C.3       11 UNK         0.1003 
     66 C          32.3315   29.4720    7.0405 C.2       11 UNK         0.5709 
     67 N          31.7560   30.2932    6.1706 N.am      11 UNK        -0.7358 
     68 O          32.1521   29.6511    8.2428 O.2       11 UNK        -0.4999 
     69 C69        32.9401   26.9521    7.2457 C.3       12 UNK        -0.0954 
     70 S70        31.5238   26.0572    6.5186 S.3       12 UNK        -0.2268 
     71 C71        32.3514   24.5675    5.8719 C.3       12 UNK         0.0203 
     72 H72        31.2628   28.6805   -2.0143 H         1 UNK         0.0888 
     73 H73        32.5094   28.7725   -0.7554 H         1 UNK         0.0888 
     74 H74        32.9393   28.9862   -2.4477 H         1 UNK         0.0888 
     75 H75        32.0003   25.0776   -1.2825 H         1 UNK         0.3017 
     76 H76        30.8604   27.3353    0.1683 H         1 UNK         0.0873 
     77 H77        31.3966   25.3430    1.4138 H         1 UNK         0.0745 
     78 H78        29.6916   25.6354    1.4708 H         1 UNK         0.0745 
     79 H79        32.3100   22.9588    1.1017 H         1 UNK         0.0705 
     80 H80        31.2011   21.6117    1.0260 H         1 UNK         0.0705 
     81 H81        32.6790   24.0039    3.2209 H         1 UNK         0.1334 
     82 H82        29.9906   23.3621    6.4951 H         1 UNK         0.1417 
     83 H83        29.0900   21.7340    2.6275 H         1 UNK         0.1562 
     84 H84        28.0212   22.0253    6.2260 H         1 UNK         0.0748 
     85 H85        27.9099   20.9523    4.8521 H         1 UNK         0.0748 
     86 H86        27.8042   24.6302    5.8357 H         1 UNK         0.0940 
     87 H87        26.2580   25.2103    5.2917 H         1 UNK         0.0940 
     88 H88        28.6403   24.7953    3.4113 H         1 UNK         0.0703 
     89 H89        27.3179   25.3388    1.7678 H         1 UNK         0.3081 
     90 H90        24.1589   26.4606    1.3651 H         1 UNK         0.0719 
     91 H91        24.8946   28.8197    1.4925 H         1 UNK         0.0809 
     92 H92        26.3959   28.4358    0.6658 H         1 UNK         0.0809 
     93 H93        24.8584   28.2965   -0.1841 H         1 UNK         0.0809 
     94 H94        26.5829   26.1623   -0.3005 H         1 UNK         0.2990 
     95 H95        26.6584   22.9932   -0.5826 H         1 UNK         0.0690 
     96 H96        24.4600   23.6512   -2.6112 H         1 UNK         0.0788 
     97 H97        24.4976   22.2861   -1.5089 H         1 UNK         0.0788 
     98 H98        25.6713   22.3847   -2.8093 H         1 UNK         0.0788 
     99 H99        28.0479   24.2543   -1.7112 H         1 UNK         0.2993 
    100 H100       28.4256   25.7068   -4.1927 H         1 UNK         0.0949 
    101 H101       27.4953   28.2891   -2.8238 H         1 UNK         0.0767 
    102 H102       28.7473   28.1959   -4.0618 H         1 UNK         0.0767 
    103 H103       27.0912   27.7690   -4.4535 H         1 UNK         0.0767 
    104 H104       30.1286   25.7595   -2.7600 H         1 UNK         0.3013 
    105 H105       27.0390   27.2846    5.3941 H         1 UNK         0.3121 
    106 H106       29.6082   28.5339    5.9392 H         1 UNK         0.0774 
    107 H107       28.2951   29.8895    7.5440 H         1 UNK         0.0815 
    108 H108       26.7914   29.2303    6.9117 H         1 UNK         0.0815 
    109 H109       27.9442   28.1828    7.7423 H         1 UNK         0.0815 
    110 H110       29.4539   28.8122    3.3519 H         1 UNK         0.2987 
    111 H111       28.3559   31.3950    2.4811 H         1 UNK         0.0949 
    112 H112       29.5281   30.8119    0.3508 H         1 UNK         0.0806 
    113 H113       30.3179   29.4487    1.1302 H         1 UNK         0.0806 
    114 H114       28.5715   29.4462    0.9002 H         1 UNK         0.0806 
    115 H115       29.5689   33.2538    2.0986 H         1 UNK         0.3010 
    116 H116       31.9627   33.7483    3.6448 H         1 UNK         0.0829 
    117 H117       30.1835   35.4571    3.4004 H         1 UNK         0.0813 
    118 H118       31.6942   36.0541    2.7362 H         1 UNK         0.0813 
    119 H119       30.4244   35.5007    1.6535 H         1 UNK         0.0813 
    120 H120       32.9727   31.9137    2.4900 H         1 UNK         0.3038 
    121 H121       35.1230   32.5671    0.7964 H         1 UNK         0.0769 
    122 H122       33.5604   32.7281   -1.1030 H         1 UNK         0.0811 
    123 H123       34.3968   31.1973   -1.2540 H         1 UNK         0.0811 
    124 H124       32.7483   31.2366   -0.6381 H         1 UNK         0.0811 
    125 H125       32.9004   30.2424    2.2616 H         1 UNK         0.3204 
    126 H126       35.0732   28.2130    2.5229 H         1 UNK         0.0748 
    127 H127       33.0905   27.3436    1.3119 H         1 UNK         0.0771 
    128 H128       33.2119   26.5901    2.8836 H         1 UNK         0.0771 
    129 H129       32.0209   27.8644    2.6102 H         1 UNK         0.0771 
    130 H130       32.7589   27.4610    4.6906 H         1 UNK         0.2980 
    131 H131       34.2409   28.6017    6.9163 H         1 UNK         0.0545 
    132 H132       31.9054   30.2119    5.1736 H         1 UNK         0.3459 
    133 H133       31.1889   31.0457    6.5244 H         1 UNK         0.3459 
    134 H134       33.8251   26.3170    7.1892 H         1 UNK         0.0616 
    135 H135       32.7555   27.0817    8.3135 H         1 UNK         0.0616 
    136 H136       32.6754   23.9453    6.7072 H         1 UNK         0.0634 
    137 H137       33.2538   24.8662    5.3359 H         1 UNK         0.0634 
@<TRIPOS>BOND
     1    1    2 1    
     2    1   72 1    
     3    1   73 1    
     4    1   74 1    
     5    2    3 2    
     6    2    4 am   BACKBONE|DICT|INTERRES
     7    4    5 1    
     8    4   75 1    
     9    5    6 1    
    10    5   35 1    
    11    5   76 1    
    12    6    7 1    
    13    6   77 1    
    14    6   78 1    
    15    7    8 1    
    16    8    9 1    
    17    8   79 1    
    18    8   80 1    
    19    9   10 ar   
    20    9   14 ar   
    21   10   11 ar   
    22   10   81 1    
    23   11   12 ar   
    24   11   71 1    
    25   12   13 ar   
    26   12   82 1    
    27   13   14 ar   
    28   13   15 1    
    29   14   83 1    
    30   15   16 1    
    31   15   84 1    
    32   15   85 1    
    33   16   17 1    
    34   17   18 1    
    35   17   86 1    
    36   17   87 1    
    37   18   19 1    
    38   18   37 1    
    39   18   88 1    
    40   19   20 am   BACKBONE|DICT|INTERRES
    41   19   89 1    
    42   20   21 2    
    43   20   22 1    
    44   22   23 1    
    45   22   24 1    
    46   22   90 1    
    47   23   91 1    
    48   23   92 1    
    49   23   93 1    
    50   24   25 am   BACKBONE|DICT|INTERRES
    51   24   94 1    
    52   25   26 2    
    53   25   27 1    
    54   27   28 1    
    55   27   29 1    
    56   27   95 1    
    57   28   96 1    
    58   28   97 1    
    59   28   98 1    
    60   29   30 am   BACKBONE|DICT|INTERRES
    61   29   99 1    
    62   30   31 2    
    63   30   32 1    
    64   32   33 1    
    65   32   34 1    
    66   32  100 1    
    67   33  101 1    
    68   33  102 1    
    69   33  103 1    
    70   34   35 am   BACKBONE|DICT|INTERRES
    71   34  104 1    
    72   35   36 2    
    73   37   38 2    
    74   37   39 am   BACKBONE|DICT|INTERRES
    75   39   40 1    
    76   39  105 1    
    77   40   41 1    
    78   40   42 1    
    79   40  106 1    
    80   41  107 1    
    81   41  108 1    
    82   41  109 1    
    83   42   43 2    
    84   42   44 am   BACKBONE|DICT|INTERRES
    85   44   45 1    
    86   44  110 1    
    87   45   46 1    
    88   45   47 1    
    89   45  111 1    
    90   46  112 1    
    91   46  113 1    
    92   46  114 1    
    93   47   48 2    
    94   47   49 am   BACKBONE|DICT|INTERRES
    95   49   50 1    
    96   49  115 1    
    97   50   51 1    
    98   50   52 1    
    99   50  116 1    
   100   51  117 1    
   101   51  118 1    
   102   51  119 1    
   103   52   53 2    
   104   52   54 am   BACKBONE|DICT|INTERRES
   105   54   55 1    
   106   54  120 1    
   107   55   56 1    
   108   55   57 1    
   109   55  121 1    
   110   56  122 1    
   111   56  123 1    
   112   56  124 1    
   113   57   58 2    
   114   57   59 am   BACKBONE|DICT|INTERRES
   115   59   60 1    
   116   59  125 1    
   117   60   61 1    
   118   60   62 1    
   119   60  126 1    
   120   61  127 1    
   121   61  128 1    
   122   61  129 1    
   123   62   63 2    
   124   62   64 am   BACKBONE|DICT|INTERRES
   125   64   65 1    
   126   64  130 1    
   127   65   66 1    
   128   65   69 1    
   129   65  131 1    
   130   66   67 am   BACKBONE|DICT|INTERRES
   131   66   68 2    
   132   67  132 1    
   133   67  133 1    
   134   69   70 1    
   135   69  134 1    
   136   69  135 1    
   137   70   71 1    
   138   71  136 1    
   139   71  137 1    
@<TRIPOS>SUBSTRUCTURE
     1 UNK         1 GROUP             0       ****    0 ROOT    
