@<TRIPOS>MOLECULE
3R136
137   139    1
SMALL
USER_CHARGES


@<TRIPOS>ATOM
      1 CA         34.1513   27.0899   -3.6219 C.3       0 UNK        -0.1979 
      2 C          32.9401   27.4035   -2.7565 C.2       0 UNK         0.4864 
      3 O          32.6768   28.5734   -2.4756 O.2       0 UNK        -0.5359 
      4 N          32.2104   26.3678   -2.3201 N.am      1 UNK        -0.4318 
      5 CA         30.9850   26.4886   -1.5254 C.3       1 UNK         0.0824 
      6 C6         30.6219   25.1472   -0.8288 C.3       12 UNK        -0.0944 
      7 S7         30.0600   25.3867    0.8894 S.3       12 UNK        -0.2672 
      8 C8         31.3988   24.5600    1.8051 C.3       12 UNK         0.0333 
      9 C9         31.1517   24.6042    3.3045 C.ar      12 UNK        -0.0807 
     10 C10        31.6583   25.6586    4.0687 C.ar      12 UNK        -0.0894 
     11 C11        31.4248   25.7148    5.4455 C.ar      12 UNK        -0.0804 
     12 C12        30.6587   24.7156    6.0547 C.ar      12 UNK        -0.0824 
     13 C13        30.1508   23.6499    5.3033 C.ar      12 UNK        -0.0762 
     14 C14        30.4199   23.5901    3.9305 C.ar      12 UNK        -0.0782 
     15 C15        29.3230   22.5622    5.9824 C.3       12 UNK         0.0230 
     16 S16        27.7021   22.2855    5.1879 S.3       12 UNK        -0.2608 
     17 C17        26.8831   23.9060    5.3949 C.3       12 UNK        -0.0989 
     18 CA         27.0655   24.8185    4.1517 C.3       5 UNK         0.0716 
     19 N          26.6394   24.2039    2.8916 N.am      5 UNK        -0.4135 
     20 C          25.3899   23.9284    2.4996 C.2       4 UNK         0.5031 
     21 O          24.3811   24.1353    3.1774 O.2       4 UNK        -0.5229 
     22 CA         25.2600   23.3382    1.0807 C.3       4 UNK         0.0329 
     23 CB         24.1350   22.2898    1.0085 C.3       4 UNK        -0.2001 
     24 N          25.0421   24.3424    0.0304 N.am      4 UNK        -0.4303 
     25 C          25.7673   25.4478   -0.1911 C.2       3 UNK         0.5044 
     26 O          26.6978   25.8297    0.5250 O.2       3 UNK        -0.5152 
     27 CA         25.4085   26.2664   -1.4376 C.3       3 UNK         0.0319 
     28 CB         24.0879   27.0391   -1.2560 C.3       3 UNK        -0.2001 
     29 N          26.5190   27.1819   -1.6699 N.am      3 UNK        -0.4354 
     30 C          26.7788   27.8940   -2.7688 C.2       2 UNK         0.4964 
     31 O          26.0596   27.9126   -3.7681 O.2       2 UNK        -0.5047 
     32 CA         28.0741   28.7242   -2.7460 C.3       2 UNK         0.0288 
     33 CB         27.8065   30.1194   -2.1571 C.3       2 UNK        -0.2113 
     34 N          29.1625   28.0831   -1.9970 N.am      2 UNK        -0.4145 
     35 C          29.8365   27.0041   -2.4201 C.2       1 UNK         0.5006 
     36 O          29.5938   26.4195   -3.4795 O.2       1 UNK        -0.5103 
     37 C          26.5203   26.2496    4.3397 C.2       5 UNK         0.5055 
     38 O          26.2187   26.6565    5.4645 O.2       5 UNK        -0.5220 
     39 N          26.4457   27.0050    3.2348 N.am      6 UNK        -0.4450 
     40 CA         26.3148   28.4621    3.2438 C.3       6 UNK         0.0367 
     41 CB         25.8592   28.9284    1.8519 C.3       6 UNK        -0.1929 
     42 C          27.6541   29.1177    3.6268 C.2       6 UNK         0.5070 
     43 O          28.6940   28.4587    3.5798 O.2       6 UNK        -0.5237 
     44 N          27.6094   30.4095    3.9780 N.am      7 UNK        -0.4739 
     45 CA         28.7771   31.2317    4.3117 C.3       7 UNK         0.0276 
     46 CB         28.2975   32.5367    4.9728 C.3       7 UNK        -0.1927 
     47 C          29.6516   31.4955    3.0705 C.2       7 UNK         0.5013 
     48 O          29.4942   32.5243    2.4095 O.2       7 UNK        -0.5193 
     49 N          30.5214   30.5338    2.7565 N.am      8 UNK        -0.4253 
     50 CA         31.4028   30.4989    1.5975 C.3       8 UNK         0.0242 
     51 CB         30.6136   29.9773    0.3846 C.3       8 UNK        -0.2000 
     52 C          32.5970   29.5922    1.9183 C.2       8 UNK         0.4948 
     53 O          32.5794   28.8894    2.9325 O.2       8 UNK        -0.5275 
     54 N          33.6215   29.6268    1.0544 N.am      9 UNK        -0.4246 
     55 CA         34.8765   28.8733    1.1673 C.3       9 UNK         0.0261 
     56 CB         34.6283   27.3714    0.8884 C.3       9 UNK        -0.1959 
     57 C          35.5804   29.1581    2.5103 C.2       9 UNK         0.5033 
     58 O          36.0014   30.2941    2.7365 O.2       9 UNK        -0.5390 
     59 N          35.6581   28.1471    3.3857 N.am      10 UNK        -0.4215 
     60 CA         36.2346   28.2218    4.7304 C.3       10 UNK         0.0240 
     61 CB         36.3640   26.7963    5.2939 C.3       10 UNK        -0.1982 
     62 C          35.4646   29.1237    5.7166 C.2       10 UNK         0.4970 
     63 O          36.0426   29.4985    6.7378 O.2       10 UNK        -0.4916 
     64 N          34.2021   29.4525    5.4153 N.am      11 UNK        -0.4279 
     65 CA         33.3345   30.3233    6.2238 C.3       11 UNK         0.1003 
     66 C          32.7743   31.5336    5.4243 C.2       11 UNK         0.5709 
     67 N          33.3878   31.9247    4.3125 N.am      11 UNK        -0.7358 
     68 O          31.7957   32.1549    5.8300 O.2       11 UNK        -0.4999 
     69 C69        32.2699   29.5177    7.0230 C.3       12 UNK        -0.0954 
     70 S70        31.2087   28.4294    6.0116 S.3       12 UNK        -0.2268 
     71 C71        32.0382   26.8324    6.2762 C.3       12 UNK         0.0203 
     72 H72        34.2724   26.0187   -3.7821 H         1 UNK         0.0888 
     73 H73        34.0507   27.5696   -4.5951 H         1 UNK         0.0888 
     74 H74        35.0573   27.4664   -3.1477 H         1 UNK         0.0888 
     75 H75        32.4522   25.4329   -2.6155 H         1 UNK         0.3017 
     76 H76        31.1928   27.2360   -0.7570 H         1 UNK         0.0873 
     77 H77        29.8525   24.5933   -1.3713 H         1 UNK         0.0745 
     78 H78        31.4852   24.4800   -0.8119 H         1 UNK         0.0745 
     79 H79        31.4805   23.5239    1.4727 H         1 UNK         0.0705 
     80 H80        32.3494   25.0383    1.5656 H         1 UNK         0.0705 
     81 H81        32.2330   26.4406    3.5927 H         1 UNK         0.1334 
     82 H82        30.4700   24.7617    7.1186 H         1 UNK         0.1417 
     83 H83        30.0309   22.7685    3.3443 H         1 UNK         0.1562 
     84 H84        29.1608   22.7954    7.0359 H         1 UNK         0.0748 
     85 H85        29.8872   21.6290    5.9593 H         1 UNK         0.0748 
     86 H86        27.2810   24.3873    6.2904 H         1 UNK         0.0940 
     87 H87        25.8223   23.7366    5.5872 H         1 UNK         0.0940 
     88 H88        28.1338   24.9847    4.0276 H         1 UNK         0.0703 
     89 H89        27.3790   24.0670    2.2167 H         1 UNK         0.3081 
     90 H90        26.1960   22.8269    0.8457 H         1 UNK         0.0719 
     91 H91        23.1525   22.7404    1.1555 H         1 UNK         0.0809 
     92 H92        24.1291   21.7766    0.0467 H         1 UNK         0.0809 
     93 H93        24.2619   21.5280    1.7790 H         1 UNK         0.0809 
     94 H94        24.2865   24.1437   -0.6093 H         1 UNK         0.2990 
     95 H95        25.3281   25.5862   -2.2879 H         1 UNK         0.0690 
     96 H96        23.8137   27.5761   -2.1640 H         1 UNK         0.0788 
     97 H97        24.1532   27.7676   -0.4494 H         1 UNK         0.0788 
     98 H98        23.2626   26.3654   -1.0230 H         1 UNK         0.0788 
     99 H99        27.1843   27.1843   -0.9050 H         1 UNK         0.2993 
    100 H100       28.4010   28.8477   -3.7811 H         1 UNK         0.0949 
    101 H101       27.0104   30.6267   -2.7041 H         1 UNK         0.0767 
    102 H102       27.5003   30.0673   -1.1113 H         1 UNK         0.0767 
    103 H103       28.6921   30.7523   -2.2189 H         1 UNK         0.0767 
    104 H104       29.4258   28.5135   -1.1236 H         1 UNK         0.3013 
    105 H105       26.7156   26.5852    2.3492 H         1 UNK         0.3121 
    106 H106       25.5614   28.7495    3.9803 H         1 UNK         0.0774 
    107 H107       25.7485   30.0126    1.8113 H         1 UNK         0.0815 
    108 H108       26.5715   28.6435    1.0768 H         1 UNK         0.0815 
    109 H109       24.8917   28.4975    1.5988 H         1 UNK         0.0815 
    110 H110       26.7184   30.8848    3.9634 H         1 UNK         0.2987 
    111 H111       29.3846   30.6932    5.0426 H         1 UNK         0.0949 
    112 H112       29.1457   33.1736    5.2282 H         1 UNK         0.0806 
    113 H113       27.6441   33.1113    4.3152 H         1 UNK         0.0806 
    114 H114       27.7550   32.3371    5.8969 H         1 UNK         0.0806 
    115 H115       30.5695   29.7022    3.3391 H         1 UNK         0.3010 
    116 H116       31.7790   31.5042    1.3975 H         1 UNK         0.0829 
    117 H117       29.7921   30.6486    0.1343 H         1 UNK         0.0813 
    118 H118       31.2467   29.8964   -0.4998 H         1 UNK         0.0813 
    119 H119       30.1922   28.9933    0.5935 H         1 UNK         0.0813 
    120 H120       33.5592   30.2490    0.2604 H         1 UNK         0.3038 
    121 H121       35.5406   29.2495    0.3877 H         1 UNK         0.0769 
    122 H122       33.9336   26.9249    1.5999 H         1 UNK         0.0811 
    123 H123       35.5583   26.8022    0.9218 H         1 UNK         0.0811 
    124 H124       34.2068   27.2274   -0.1051 H         1 UNK         0.0811 
    125 H125       35.2494   27.2637    3.1185 H         1 UNK         0.3204 
    126 H126       37.2379   28.6421    4.6348 H         1 UNK         0.0748 
    127 H127       37.0022   26.1768    4.6634 H         1 UNK         0.0771 
    128 H128       36.8105   26.8067    6.2893 H         1 UNK         0.0771 
    129 H129       35.3945   26.3038    5.3771 H         1 UNK         0.0771 
    130 H130       33.7832   29.1208    4.5508 H         1 UNK         0.2980 
    131 H131       33.9504   30.8163    6.9773 H         1 UNK         0.0545 
    132 H132       33.0348   32.7267    3.8165 H         1 UNK         0.3459 
    133 H133       34.2164   31.4494    3.9862 H         1 UNK         0.3459 
    134 H134       32.7745   28.9119    7.7768 H         1 UNK         0.0616 
    135 H135       31.6235   30.1906    7.5886 H         1 UNK         0.0616 
    136 H136       33.0928   26.9274    6.0181 H         1 UNK         0.0634 
    137 H137       32.0023   26.5846    7.3381 H         1 UNK         0.0634 
@<TRIPOS>BOND
     1    1    2 1    
     2    1   72 1    
     3    1   73 1    
     4    1   74 1    
     5    2    3 2    
     6    2    4 am   BACKBONE|DICT|INTERRES
     7    4    5 1    
     8    4   75 1    
     9    5    6 1    
    10    5   35 1    
    11    5   76 1    
    12    6    7 1    
    13    6   77 1    
    14    6   78 1    
    15    7    8 1    
    16    8    9 1    
    17    8   79 1    
    18    8   80 1    
    19    9   10 ar   
    20    9   14 ar   
    21   10   11 ar   
    22   10   81 1    
    23   11   12 ar   
    24   11   71 1    
    25   12   13 ar   
    26   12   82 1    
    27   13   14 ar   
    28   13   15 1    
    29   14   83 1    
    30   15   16 1    
    31   15   84 1    
    32   15   85 1    
    33   16   17 1    
    34   17   18 1    
    35   17   86 1    
    36   17   87 1    
    37   18   19 1    
    38   18   37 1    
    39   18   88 1    
    40   19   20 am   BACKBONE|DICT|INTERRES
    41   19   89 1    
    42   20   21 2    
    43   20   22 1    
    44   22   23 1    
    45   22   24 1    
    46   22   90 1    
    47   23   91 1    
    48   23   92 1    
    49   23   93 1    
    50   24   25 am   BACKBONE|DICT|INTERRES
    51   24   94 1    
    52   25   26 2    
    53   25   27 1    
    54   27   28 1    
    55   27   29 1    
    56   27   95 1    
    57   28   96 1    
    58   28   97 1    
    59   28   98 1    
    60   29   30 am   BACKBONE|DICT|INTERRES
    61   29   99 1    
    62   30   31 2    
    63   30   32 1    
    64   32   33 1    
    65   32   34 1    
    66   32  100 1    
    67   33  101 1    
    68   33  102 1    
    69   33  103 1    
    70   34   35 am   BACKBONE|DICT|INTERRES
    71   34  104 1    
    72   35   36 2    
    73   37   38 2    
    74   37   39 am   BACKBONE|DICT|INTERRES
    75   39   40 1    
    76   39  105 1    
    77   40   41 1    
    78   40   42 1    
    79   40  106 1    
    80   41  107 1    
    81   41  108 1    
    82   41  109 1    
    83   42   43 2    
    84   42   44 am   BACKBONE|DICT|INTERRES
    85   44   45 1    
    86   44  110 1    
    87   45   46 1    
    88   45   47 1    
    89   45  111 1    
    90   46  112 1    
    91   46  113 1    
    92   46  114 1    
    93   47   48 2    
    94   47   49 am   BACKBONE|DICT|INTERRES
    95   49   50 1    
    96   49  115 1    
    97   50   51 1    
    98   50   52 1    
    99   50  116 1    
   100   51  117 1    
   101   51  118 1    
   102   51  119 1    
   103   52   53 2    
   104   52   54 am   BACKBONE|DICT|INTERRES
   105   54   55 1    
   106   54  120 1    
   107   55   56 1    
   108   55   57 1    
   109   55  121 1    
   110   56  122 1    
   111   56  123 1    
   112   56  124 1    
   113   57   58 2    
   114   57   59 am   BACKBONE|DICT|INTERRES
   115   59   60 1    
   116   59  125 1    
   117   60   61 1    
   118   60   62 1    
   119   60  126 1    
   120   61  127 1    
   121   61  128 1    
   122   61  129 1    
   123   62   63 2    
   124   62   64 am   BACKBONE|DICT|INTERRES
   125   64   65 1    
   126   64  130 1    
   127   65   66 1    
   128   65   69 1    
   129   65  131 1    
   130   66   67 am   BACKBONE|DICT|INTERRES
   131   66   68 2    
   132   67  132 1    
   133   67  133 1    
   134   69   70 1    
   135   69  134 1    
   136   69  135 1    
   137   70   71 1    
   138   71  136 1    
   139   71  137 1    
@<TRIPOS>SUBSTRUCTURE
     1 UNK         1 GROUP             0       ****    0 ROOT    
