@<TRIPOS>MOLECULE
3R136
137   139    1
SMALL
USER_CHARGES


@<TRIPOS>ATOM
      1 CA         28.3171   18.8301   -0.5931 C.3       0 UNK        -0.1979 
      2 C          28.2096   20.2652   -1.0870 C.2       0 UNK         0.4864 
      3 O          27.5080   20.5230   -2.0659 O.2       0 UNK        -0.5359 
      4 N          28.9029   21.1972   -0.4182 N.am      1 UNK        -0.4318 
      5 CA         28.9210   22.6306   -0.7434 C.3       1 UNK         0.0824 
      6 C6         30.0484   23.3868    0.0030 C.3       12 UNK        -0.0944 
      7 S7         31.7106   22.7186   -0.3513 S.3       12 UNK        -0.2672 
      8 C8         32.1305   21.8539    1.1980 C.3       12 UNK         0.0333 
      9 C9         32.4602   22.8247    2.3230 C.ar      12 UNK        -0.0807 
     10 C10        33.7471   23.3613    2.4332 C.ar      12 UNK        -0.0894 
     11 C11        34.0571   24.2547    3.4633 C.ar      12 UNK        -0.0804 
     12 C12        33.0677   24.6155    4.3829 C.ar      12 UNK        -0.0824 
     13 C13        31.7797   24.0821    4.2851 C.ar      12 UNK        -0.0762 
     14 C14        31.4858   23.1768    3.2622 C.ar      12 UNK        -0.0782 
     15 C15        30.7125   24.4732    5.2959 C.3       12 UNK         0.0230 
     16 S16        30.1635   26.1938    5.0762 S.3       12 UNK        -0.2608 
     17 C17        29.1731   26.1053    3.5421 C.3       12 UNK        -0.0989 
     18 CA         29.2900   27.3822    2.6702 C.3       5 UNK         0.0716 
     19 N          28.6666   27.2112    1.3536 N.am      5 UNK        -0.4135 
     20 C          28.7984   28.0805    0.3370 C.2       4 UNK         0.5031 
     21 O          29.5193   29.0768    0.3792 O.2       4 UNK        -0.5229 
     22 CA         27.9428   27.8429   -0.9203 C.3       4 UNK         0.0329 
     23 CB         28.7174   27.0272   -1.9657 C.3       4 UNK        -0.2001 
     24 N          26.6557   27.2062   -0.6259 N.am      4 UNK        -0.4303 
     25 C          25.6855   27.7986    0.0893 C.2       3 UNK         0.5044 
     26 O          25.7702   28.9490    0.5175 O.2       3 UNK        -0.5152 
     27 CA         24.4293   26.9789    0.4346 C.3       3 UNK         0.0319 
     28 CB         23.2869   27.3204   -0.5344 C.3       3 UNK        -0.2001 
     29 N          24.6269   25.5273    0.4553 N.am      3 UNK        -0.4354 
     30 C          25.5066   24.8634    1.2182 C.2       2 UNK         0.4964 
     31 O          26.2911   25.4134    1.9941 O.2       2 UNK        -0.5047 
     32 CA         25.5602   23.3310    1.0577 C.3       2 UNK         0.0288 
     33 CB         24.4573   22.7478    0.1437 C.3       2 UNK        -0.2113 
     34 N          26.8779   22.8746    0.6012 N.am      2 UNK        -0.4145 
     35 C          27.5599   23.3060   -0.4740 C.2       1 UNK         0.5006 
     36 O          27.1621   24.1906   -1.2351 O.2       1 UNK        -0.5103 
     37 C          28.7121   28.6206    3.3841 C.2       5 UNK         0.5055 
     38 O          29.4795   29.4446    3.8835 O.2       5 UNK        -0.5220 
     39 N          27.3767   28.7459    3.3838 N.am      6 UNK        -0.4450 
     40 CA         26.6507   29.8749    3.9680 C.3       6 UNK         0.0367 
     41 CB         25.1444   29.5685    3.9896 C.3       6 UNK        -0.1929 
     42 C          26.9310   31.2014    3.2429 C.2       6 UNK         0.5070 
     43 O          27.1206   32.2199    3.9070 O.2       6 UNK        -0.5237 
     44 N          26.9780   31.1614    1.9036 N.am      7 UNK        -0.4739 
     45 CA         27.2853   32.3083    1.0454 C.3       7 UNK         0.0276 
     46 CB         27.0192   31.9413   -0.4230 C.3       7 UNK        -0.1927 
     47 C          28.7219   32.8265    1.2229 C.2       7 UNK         0.5013 
     48 O          28.9186   34.0404    1.2930 O.2       7 UNK        -0.5193 
     49 N          29.6945   31.9070    1.3034 N.am      8 UNK        -0.4253 
     50 CA         31.1060   32.2284    1.5331 C.3       8 UNK         0.0242 
     51 CB         31.9710   31.0304    1.1091 C.3       8 UNK        -0.2000 
     52 C          31.4188   32.6128    2.9906 C.2       8 UNK         0.4948 
     53 O          32.4144   33.3007    3.2189 O.2       8 UNK        -0.5275 
     54 N          30.5838   32.1474    3.9336 N.am      9 UNK        -0.4246 
     55 CA         30.7911   32.1315    5.3870 C.3       9 UNK         0.0261 
     56 CB         30.9082   33.5560    5.9709 C.3       9 UNK        -0.1959 
     57 C          31.9692   31.2072    5.7528 C.2       9 UNK         0.5033 
     58 O          32.8923   31.6223    6.4575 O.2       9 UNK        -0.5390 
     59 N          31.9010   29.9720    5.2317 N.am      10 UNK        -0.4215 
     60 CA         32.9264   28.9212    5.2340 C.3       10 UNK         0.0240 
     61 CB         33.2825   28.4887    6.6738 C.3       10 UNK        -0.1982 
     62 C          34.1631   29.2888    4.3876 C.2       10 UNK         0.4970 
     63 O          34.1687   30.3081    3.6953 O.2       10 UNK        -0.4916 
     64 N          35.1770   28.4167    4.4151 N.am      11 UNK        -0.4279 
     65 CA         36.4088   28.5458    3.6153 C.3       11 UNK         0.1003 
     66 C          37.4938   29.4637    4.2507 C.2       11 UNK         0.5709 
     67 N          37.3003   29.9953    5.4522 N.am      11 UNK        -0.7358 
     68 O          38.5299   29.7073    3.6364 O.2       11 UNK        -0.4999 
     69 C69        36.9904   27.1607    3.2232 C.3       12 UNK        -0.0954 
     70 S70        35.7665   26.1200    2.3552 S.3       12 UNK        -0.2268 
     71 C71        35.4612   24.8225    3.5927 C.3       12 UNK         0.0203 
     72 H72        27.3333   18.4562   -0.3107 H         1 UNK         0.0888 
     73 H73        28.7111   18.1906   -1.3826 H         1 UNK         0.0888 
     74 H74        28.9741   18.7434    0.2721 H         1 UNK         0.0888 
     75 H75        29.4838   20.9153    0.3569 H         1 UNK         0.3017 
     76 H76        29.1105   22.7195   -1.8156 H         1 UNK         0.0873 
     77 H77        29.8633   23.3837    1.0759 H         1 UNK         0.0745 
     78 H78        30.0606   24.4378   -0.2887 H         1 UNK         0.0745 
     79 H79        32.9902   21.2078    1.0136 H         1 UNK         0.0705 
     80 H80        31.3138   21.1916    1.4871 H         1 UNK         0.0705 
     81 H81        34.5073   23.0883    1.7138 H         1 UNK         0.1334 
     82 H82        33.2954   25.3105    5.1794 H         1 UNK         0.1417 
     83 H83        30.4947   22.7499    3.1966 H         1 UNK         0.1562 
     84 H84        31.1171   24.3605    6.3028 H         1 UNK         0.0748 
     85 H85        29.8495   23.8079    5.2382 H         1 UNK         0.0748 
     86 H86        28.1353   25.9062    3.8144 H         1 UNK         0.0940 
     87 H87        29.5001   25.2431    2.9606 H         1 UNK         0.0940 
     88 H88        30.3521   27.5715    2.4972 H         1 UNK         0.0703 
     89 H89        27.9944   26.4577    1.2688 H         1 UNK         0.3081 
     90 H90        27.7302   28.8196   -1.3589 H         1 UNK         0.0719 
     91 H91        28.1303   26.8829   -2.8728 H         1 UNK         0.0809 
     92 H92        29.6371   27.5390   -2.2524 H         1 UNK         0.0809 
     93 H93        28.9986   26.0454   -1.5894 H         1 UNK         0.0809 
     94 H94        26.5375   26.2438   -0.9244 H         1 UNK         0.2990 
     95 H95        24.1229   27.2757    1.4398 H         1 UNK         0.0690 
     96 H96        23.5191   27.0149   -1.5555 H         1 UNK         0.0788 
     97 H97        23.0968   28.3948   -0.5509 H         1 UNK         0.0788 
     98 H98        22.3564   26.8344   -0.2402 H         1 UNK         0.0788 
     99 H99        24.0516   24.9866   -0.1743 H         1 UNK         0.2993 
    100 H100       25.4145   22.9209    2.0583 H         1 UNK         0.0949 
    101 H101       24.5510   23.0905   -0.8877 H         1 UNK         0.0767 
    102 H102       24.5046   21.6587    0.1275 H         1 UNK         0.0767 
    103 H103       23.4612   23.0143    0.5001 H         1 UNK         0.0767 
    104 H104       27.3089   22.1593    1.1689 H         1 UNK         0.3013 
    105 H105       26.8240   28.0342    2.9276 H         1 UNK         0.3121 
    106 H106       26.9889   29.9861    5.0006 H         1 UNK         0.0774 
    107 H107       24.5900   30.3832    4.4572 H         1 UNK         0.0815 
    108 H108       24.7410   29.4369    2.9852 H         1 UNK         0.0815 
    109 H109       24.9307   28.6640    4.5592 H         1 UNK         0.0815 
    110 H110       26.7336   30.2918    1.4348 H         1 UNK         0.2987 
    111 H111       26.6065   33.1182    1.3215 H         1 UNK         0.0949 
    112 H112       27.6714   31.1360   -0.7609 H         1 UNK         0.0806 
    113 H113       25.9876   31.6218   -0.5723 H         1 UNK         0.0806 
    114 H114       27.1922   32.7973   -1.0765 H         1 UNK         0.0806 
    115 H115       29.4636   30.9254    1.1776 H         1 UNK         0.3010 
    116 H116       31.3733   33.0796    0.9030 H         1 UNK         0.0829 
    117 H117       33.0322   31.2524    1.2302 H         1 UNK         0.0813 
    118 H118       31.7547   30.1462    1.7107 H         1 UNK         0.0813 
    119 H119       31.8096   30.7722    0.0624 H         1 UNK         0.0813 
    120 H120       29.8187   31.5643    3.6154 H         1 UNK         0.3038 
    121 H121       29.8962   31.6764    5.8147 H         1 UNK         0.0769 
    122 H122       31.8198   34.0590    5.6478 H         1 UNK         0.0811 
    123 H123       30.9277   33.5253    7.0607 H         1 UNK         0.0811 
    124 H124       30.0602   34.1747    5.6775 H         1 UNK         0.0811 
    125 H125       31.0713   29.7594    4.6775 H         1 UNK         0.3204 
    126 H126       32.4672   28.0678    4.7339 H         1 UNK         0.0748 
    127 H127       33.8702   27.5707    6.6838 H         1 UNK         0.0771 
    128 H128       33.8588   29.2518    7.1979 H         1 UNK         0.0771 
    129 H129       32.3827   28.2918    7.2570 H         1 UNK         0.0771 
    130 H130       35.1151   27.6018    5.0047 H         1 UNK         0.2980 
    131 H131       36.1418   29.0394    2.6787 H         1 UNK         0.0545 
    132 H132       38.0097   30.5917    5.8478 H         1 UNK         0.3459 
    133 H133       36.4468   29.8206    5.9572 H         1 UNK         0.3459 
    134 H134       37.8422   27.2838    2.5519 H         1 UNK         0.0616 
    135 H135       37.3744   26.6398    4.1018 H         1 UNK         0.0616 
    136 H136       35.6058   25.2225    4.5972 H         1 UNK         0.0634 
    137 H137       36.1985   24.0280    3.4691 H         1 UNK         0.0634 
@<TRIPOS>BOND
     1    1    2 1    
     2    1   72 1    
     3    1   73 1    
     4    1   74 1    
     5    2    3 2    
     6    2    4 am   BACKBONE|DICT|INTERRES
     7    4    5 1    
     8    4   75 1    
     9    5    6 1    
    10    5   35 1    
    11    5   76 1    
    12    6    7 1    
    13    6   77 1    
    14    6   78 1    
    15    7    8 1    
    16    8    9 1    
    17    8   79 1    
    18    8   80 1    
    19    9   10 ar   
    20    9   14 ar   
    21   10   11 ar   
    22   10   81 1    
    23   11   12 ar   
    24   11   71 1    
    25   12   13 ar   
    26   12   82 1    
    27   13   14 ar   
    28   13   15 1    
    29   14   83 1    
    30   15   16 1    
    31   15   84 1    
    32   15   85 1    
    33   16   17 1    
    34   17   18 1    
    35   17   86 1    
    36   17   87 1    
    37   18   19 1    
    38   18   37 1    
    39   18   88 1    
    40   19   20 am   BACKBONE|DICT|INTERRES
    41   19   89 1    
    42   20   21 2    
    43   20   22 1    
    44   22   23 1    
    45   22   24 1    
    46   22   90 1    
    47   23   91 1    
    48   23   92 1    
    49   23   93 1    
    50   24   25 am   BACKBONE|DICT|INTERRES
    51   24   94 1    
    52   25   26 2    
    53   25   27 1    
    54   27   28 1    
    55   27   29 1    
    56   27   95 1    
    57   28   96 1    
    58   28   97 1    
    59   28   98 1    
    60   29   30 am   BACKBONE|DICT|INTERRES
    61   29   99 1    
    62   30   31 2    
    63   30   32 1    
    64   32   33 1    
    65   32   34 1    
    66   32  100 1    
    67   33  101 1    
    68   33  102 1    
    69   33  103 1    
    70   34   35 am   BACKBONE|DICT|INTERRES
    71   34  104 1    
    72   35   36 2    
    73   37   38 2    
    74   37   39 am   BACKBONE|DICT|INTERRES
    75   39   40 1    
    76   39  105 1    
    77   40   41 1    
    78   40   42 1    
    79   40  106 1    
    80   41  107 1    
    81   41  108 1    
    82   41  109 1    
    83   42   43 2    
    84   42   44 am   BACKBONE|DICT|INTERRES
    85   44   45 1    
    86   44  110 1    
    87   45   46 1    
    88   45   47 1    
    89   45  111 1    
    90   46  112 1    
    91   46  113 1    
    92   46  114 1    
    93   47   48 2    
    94   47   49 am   BACKBONE|DICT|INTERRES
    95   49   50 1    
    96   49  115 1    
    97   50   51 1    
    98   50   52 1    
    99   50  116 1    
   100   51  117 1    
   101   51  118 1    
   102   51  119 1    
   103   52   53 2    
   104   52   54 am   BACKBONE|DICT|INTERRES
   105   54   55 1    
   106   54  120 1    
   107   55   56 1    
   108   55   57 1    
   109   55  121 1    
   110   56  122 1    
   111   56  123 1    
   112   56  124 1    
   113   57   58 2    
   114   57   59 am   BACKBONE|DICT|INTERRES
   115   59   60 1    
   116   59  125 1    
   117   60   61 1    
   118   60   62 1    
   119   60  126 1    
   120   61  127 1    
   121   61  128 1    
   122   61  129 1    
   123   62   63 2    
   124   62   64 am   BACKBONE|DICT|INTERRES
   125   64   65 1    
   126   64  130 1    
   127   65   66 1    
   128   65   69 1    
   129   65  131 1    
   130   66   67 am   BACKBONE|DICT|INTERRES
   131   66   68 2    
   132   67  132 1    
   133   67  133 1    
   134   69   70 1    
   135   69  134 1    
   136   69  135 1    
   137   70   71 1    
   138   71  136 1    
   139   71  137 1    
@<TRIPOS>SUBSTRUCTURE
     1 UNK         1 GROUP             0       ****    0 ROOT    
