@<TRIPOS>MOLECULE
3R136
137   139    1
SMALL
USER_CHARGES


@<TRIPOS>ATOM
      1 CA         30.6215   27.6872   -1.7175 C.3       0 UNK        -0.1979 
      2 C          30.8649   26.2062   -1.4683 C.2       0 UNK         0.4864 
      3 O          31.4904   25.5407   -2.2946 O.2       0 UNK        -0.5359 
      4 N          30.3456   25.6830   -0.3494 N.am      1 UNK        -0.4318 
      5 CA         30.4269   24.2983    0.1466 C.3       1 UNK         0.0824 
      6 C6         31.8649   23.7559    0.3643 C.3       12 UNK        -0.0944 
      7 S7         32.8836   24.7960    1.4624 S.3       12 UNK        -0.2672 
      8 C8         32.7341   23.9381    3.0611 C.3       12 UNK         0.0333 
      9 C9         31.4618   24.3323    3.7971 C.ar      12 UNK        -0.0807 
     10 C10        31.4656   25.4344    4.6576 C.ar      12 UNK        -0.0894 
     11 C11        30.3118   25.7974    5.3656 C.ar      12 UNK        -0.0804 
     12 C12        29.1506   25.0388    5.1915 C.ar      12 UNK        -0.0824 
     13 C13        29.1220   23.9517    4.3126 C.ar      12 UNK        -0.0762 
     14 C14        30.2885   23.5909    3.6337 C.ar      12 UNK        -0.0782 
     15 C15        27.8375   23.1591    4.1044 C.3       12 UNK         0.0230 
     16 S16        26.7934   23.8734    2.7882 S.3       12 UNK        -0.2608 
     17 C17        26.1377   25.3669    3.6064 C.3       12 UNK        -0.0989 
     18 CA         26.7938   26.6588    3.0394 C.3       5 UNK         0.0716 
     19 N          26.2835   27.0169    1.7049 N.am      5 UNK        -0.4135 
     20 C          25.0557   27.4706    1.4130 C.2       4 UNK         0.5031 
     21 O          24.1461   27.5793    2.2361 O.2       4 UNK        -0.5229 
     22 CA         24.7991   27.9184   -0.0358 C.3       4 UNK         0.0329 
     23 CB         25.5624   29.2195   -0.3610 C.3       4 UNK        -0.2001 
     24 N          25.0316   26.8843   -1.0521 N.am      4 UNK        -0.4303 
     25 C          26.1847   26.3082   -1.4142 C.2       3 UNK         0.5044 
     26 O          27.2800   26.5456   -0.8916 O.2       3 UNK        -0.5152 
     27 CA         26.0884   25.3139   -2.5785 C.3       3 UNK         0.0319 
     28 CB         25.8817   26.0424   -3.9194 C.3       3 UNK        -0.2001 
     29 N          27.3206   24.5415   -2.6289 N.am      3 UNK        -0.4354 
     30 C          27.4647   23.2962   -3.0969 C.2       2 UNK         0.4964 
     31 O          26.5524   22.6480   -3.6109 O.2       2 UNK        -0.5047 
     32 CA         28.8644   22.6624   -2.9748 C.3       2 UNK         0.0288 
     33 CB         29.5684   22.6400   -4.3416 C.3       2 UNK        -0.2113 
     34 N          29.7174   23.3655   -2.0135 N.am      2 UNK        -0.4145 
     35 C          29.5894   23.3051   -0.6824 C.2       1 UNK         0.5006 
     36 O          28.8256   22.5287   -0.1080 O.2       1 UNK        -0.5103 
     37 C          26.7615   27.8568    4.0241 C.2       5 UNK         0.5055 
     38 O          26.5819   27.6714    5.2297 O.2       5 UNK        -0.5220 
     39 N          26.9470   29.0687    3.4859 N.am      6 UNK        -0.4450 
     40 CA         27.0566   30.3241    4.2261 C.3       6 UNK         0.0367 
     41 CB         26.3861   31.4329    3.3952 C.3       6 UNK        -0.1929 
     42 C          28.5347   30.6572    4.4746 C.2       6 UNK         0.5070 
     43 O          29.4129   30.0411    3.8709 O.2       6 UNK        -0.5237 
     44 N          28.7897   31.6798    5.3017 N.am      7 UNK        -0.4739 
     45 CA         30.1279   32.1695    5.6739 C.3       7 UNK         0.0276 
     46 CB         29.9751   33.2573    6.7503 C.3       7 UNK        -0.1927 
     47 C          31.0052   32.6792    4.5079 C.2       7 UNK         0.5013 
     48 O          32.1983   32.9041    4.7103 O.2       7 UNK        -0.5193 
     49 N          30.4139   32.8456    3.3166 N.am      8 UNK        -0.4253 
     50 CA         31.1097   33.1020    2.0535 C.3       8 UNK         0.0242 
     51 CB         30.0905   33.6142    1.0218 C.3       8 UNK        -0.2000 
     52 C          31.8604   31.8695    1.5042 C.2       8 UNK         0.4948 
     53 O          32.7171   32.0372    0.6343 O.2       8 UNK        -0.5275 
     54 N          31.5282   30.6649    1.9939 N.am      9 UNK        -0.4246 
     55 CA         32.2099   29.4059    1.6867 C.3       9 UNK         0.0261 
     56 CB         31.2572   28.2471    2.0334 C.3       9 UNK        -0.1959 
     57 C          33.5534   29.2838    2.4366 C.2       9 UNK         0.5033 
     58 O          33.9532   30.2000    3.1595 O.2       9 UNK        -0.5390 
     59 N          34.2303   28.1355    2.2781 N.am      10 UNK        -0.4215 
     60 CA         35.5517   27.8413    2.8584 C.3       10 UNK         0.0240 
     61 CB         36.0494   26.4849    2.3333 C.3       10 UNK        -0.1982 
     62 C          35.6242   27.8789    4.3998 C.2       10 UNK         0.4970 
     63 O          36.7264   27.9545    4.9444 O.2       10 UNK        -0.4916 
     64 N          34.4666   27.8436    5.0699 N.am      11 UNK        -0.4279 
     65 CA         34.3082   28.1129    6.5050 C.3       11 UNK         0.1003 
     66 C          34.5620   29.5944    6.9192 C.2       11 UNK         0.5709 
     67 N          34.5735   30.5557    6.0024 N.am      11 UNK        -0.7358 
     68 O          34.7650   29.8715    8.0991 O.2       11 UNK        -0.4999 
     69 C69        32.9403   27.5986    7.0279 C.3       12 UNK        -0.0954 
     70 S70        31.5154   28.2760    6.1041 S.3       12 UNK        -0.2268 
     71 C71        30.2617   26.9735    6.3455 C.3       12 UNK         0.0203 
     72 H72        30.1835   27.8336   -2.7046 H         1 UNK         0.0888 
     73 H73        29.9416   28.1186   -0.9828 H         1 UNK         0.0888 
     74 H74        31.5627   28.2344   -1.6761 H         1 UNK         0.0888 
     75 H75        29.7856   26.2892    0.2324 H         1 UNK         0.3017 
     76 H76        29.9396   24.3421    1.1191 H         1 UNK         0.0873 
     77 H77        31.8329   22.7429    0.7696 H         1 UNK         0.0745 
     78 H78        32.3895   23.6729   -0.5889 H         1 UNK         0.0745 
     79 H79        33.6011   24.1922    3.6728 H         1 UNK         0.0705 
     80 H80        32.7789   22.8576    2.9172 H         1 UNK         0.0705 
     81 H81        32.3792   25.9951    4.7735 H         1 UNK         0.1334 
     82 H82        28.2602   25.3063    5.7427 H         1 UNK         0.1417 
     83 H83        30.2789   22.7391    2.9670 H         1 UNK         0.1562 
     84 H84        27.2720   23.0977    5.0355 H         1 UNK         0.0748 
     85 H85        28.0788   22.1301    3.8334 H         1 UNK         0.0748 
     86 H86        26.2858   25.2621    4.6805 H         1 UNK         0.0940 
     87 H87        25.0551   25.3905    3.4767 H         1 UNK         0.0940 
     88 H88        27.8583   26.4591    2.9045 H         1 UNK         0.0703 
     89 H89        26.9245   26.9049    0.9235 H         1 UNK         0.3081 
     90 H90        23.7346   28.1509   -0.1009 H         1 UNK         0.0719 
     91 H91        25.2931   29.5973   -1.3473 H         1 UNK         0.0809 
     92 H92        26.6439   29.0833   -0.3422 H         1 UNK         0.0809 
     93 H93        25.3222   30.0021    0.3601 H         1 UNK         0.0809 
     94 H94        24.1972   26.5832   -1.5371 H         1 UNK         0.2990 
     95 H95        25.2483   24.6427   -2.3871 H         1 UNK         0.0690 
     96 H96        25.8143   25.3369   -4.7478 H         1 UNK         0.0788 
     97 H97        26.7014   26.7299   -4.1327 H         1 UNK         0.0788 
     98 H98        24.9590   26.6240   -3.9175 H         1 UNK         0.0788 
     99 H99        28.1010   24.9894   -2.1661 H         1 UNK         0.2993 
    100 H100       28.7305   21.6329   -2.6355 H         1 UNK         0.0949 
    101 H101       29.7345   23.6474   -4.7259 H         1 UNK         0.0767 
    102 H102       30.5354   22.1402   -4.2810 H         1 UNK         0.0767 
    103 H103       28.9721   22.1021   -5.0801 H         1 UNK         0.0767 
    104 H104       30.3856   24.0400   -2.3824 H         1 UNK         0.3013 
    105 H105       27.1621   29.1183    2.5018 H         1 UNK         0.3121 
    106 H106       26.5491   30.2405    5.1896 H         1 UNK         0.0774 
    107 H107       26.3912   32.3859    3.9254 H         1 UNK         0.0815 
    108 H108       26.8907   31.5871    2.4403 H         1 UNK         0.0815 
    109 H109       25.3439   31.1909    3.1850 H         1 UNK         0.0815 
    110 H110       28.0088   32.1506    5.7370 H         1 UNK         0.2987 
    111 H111       30.6672   31.3279    6.1145 H         1 UNK         0.0949 
    112 H112       29.4553   32.8769    7.6298 H         1 UNK         0.0806 
    113 H113       30.9491   33.6168    7.0856 H         1 UNK         0.0806 
    114 H114       29.4211   34.1191    6.3762 H         1 UNK         0.0806 
    115 H115       29.4273   32.6435    3.2578 H         1 UNK         0.3010 
    116 H116       31.8515   33.8851    2.2240 H         1 UNK         0.0829 
    117 H117       29.5990   34.5243    1.3663 H         1 UNK         0.0813 
    118 H118       30.5789   33.8506    0.0753 H         1 UNK         0.0813 
    119 H119       29.3189   32.8719    0.8132 H         1 UNK         0.0813 
    120 H120       30.8192   30.6089    2.7212 H         1 UNK         0.3038 
    121 H121       32.4188   29.3786    0.6155 H         1 UNK         0.0769 
    122 H122       30.2690   28.4008    1.6004 H         1 UNK         0.0811 
    123 H123       31.1288   28.1361    3.1104 H         1 UNK         0.0811 
    124 H124       31.6276   27.2997    1.6513 H         1 UNK         0.0811 
    125 H125       33.8321   27.4139    1.6928 H         1 UNK         0.3204 
    126 H126       36.2338   28.6129    2.4956 H         1 UNK         0.0748 
    127 H127       37.0760   26.2975    2.6512 H         1 UNK         0.0771 
    128 H128       35.4421   25.6608    2.7073 H         1 UNK         0.0771 
    129 H129       36.0384   26.4465    1.2438 H         1 UNK         0.0771 
    130 H130       33.6104   27.8320    4.5381 H         1 UNK         0.2980 
    131 H131       35.0782   27.5343    7.0188 H         1 UNK         0.0545 
    132 H132       34.7309   31.5078    6.2892 H         1 UNK         0.3459 
    133 H133       34.3717   30.3554    5.0262 H         1 UNK         0.3459 
    134 H134       32.9186   26.5099    6.9699 H         1 UNK         0.0616 
    135 H135       32.8130   27.8340    8.0861 H         1 UNK         0.0616 
    136 H136       29.2872   27.4578    6.2634 H         1 UNK         0.0634 
    137 H137       30.3295   26.5929    7.3653 H         1 UNK         0.0634 
@<TRIPOS>BOND
     1    1    2 1    
     2    1   72 1    
     3    1   73 1    
     4    1   74 1    
     5    2    3 2    
     6    2    4 am   BACKBONE|DICT|INTERRES
     7    4    5 1    
     8    4   75 1    
     9    5    6 1    
    10    5   35 1    
    11    5   76 1    
    12    6    7 1    
    13    6   77 1    
    14    6   78 1    
    15    7    8 1    
    16    8    9 1    
    17    8   79 1    
    18    8   80 1    
    19    9   10 ar   
    20    9   14 ar   
    21   10   11 ar   
    22   10   81 1    
    23   11   12 ar   
    24   11   71 1    
    25   12   13 ar   
    26   12   82 1    
    27   13   14 ar   
    28   13   15 1    
    29   14   83 1    
    30   15   16 1    
    31   15   84 1    
    32   15   85 1    
    33   16   17 1    
    34   17   18 1    
    35   17   86 1    
    36   17   87 1    
    37   18   19 1    
    38   18   37 1    
    39   18   88 1    
    40   19   20 am   BACKBONE|DICT|INTERRES
    41   19   89 1    
    42   20   21 2    
    43   20   22 1    
    44   22   23 1    
    45   22   24 1    
    46   22   90 1    
    47   23   91 1    
    48   23   92 1    
    49   23   93 1    
    50   24   25 am   BACKBONE|DICT|INTERRES
    51   24   94 1    
    52   25   26 2    
    53   25   27 1    
    54   27   28 1    
    55   27   29 1    
    56   27   95 1    
    57   28   96 1    
    58   28   97 1    
    59   28   98 1    
    60   29   30 am   BACKBONE|DICT|INTERRES
    61   29   99 1    
    62   30   31 2    
    63   30   32 1    
    64   32   33 1    
    65   32   34 1    
    66   32  100 1    
    67   33  101 1    
    68   33  102 1    
    69   33  103 1    
    70   34   35 am   BACKBONE|DICT|INTERRES
    71   34  104 1    
    72   35   36 2    
    73   37   38 2    
    74   37   39 am   BACKBONE|DICT|INTERRES
    75   39   40 1    
    76   39  105 1    
    77   40   41 1    
    78   40   42 1    
    79   40  106 1    
    80   41  107 1    
    81   41  108 1    
    82   41  109 1    
    83   42   43 2    
    84   42   44 am   BACKBONE|DICT|INTERRES
    85   44   45 1    
    86   44  110 1    
    87   45   46 1    
    88   45   47 1    
    89   45  111 1    
    90   46  112 1    
    91   46  113 1    
    92   46  114 1    
    93   47   48 2    
    94   47   49 am   BACKBONE|DICT|INTERRES
    95   49   50 1    
    96   49  115 1    
    97   50   51 1    
    98   50   52 1    
    99   50  116 1    
   100   51  117 1    
   101   51  118 1    
   102   51  119 1    
   103   52   53 2    
   104   52   54 am   BACKBONE|DICT|INTERRES
   105   54   55 1    
   106   54  120 1    
   107   55   56 1    
   108   55   57 1    
   109   55  121 1    
   110   56  122 1    
   111   56  123 1    
   112   56  124 1    
   113   57   58 2    
   114   57   59 am   BACKBONE|DICT|INTERRES
   115   59   60 1    
   116   59  125 1    
   117   60   61 1    
   118   60   62 1    
   119   60  126 1    
   120   61  127 1    
   121   61  128 1    
   122   61  129 1    
   123   62   63 2    
   124   62   64 am   BACKBONE|DICT|INTERRES
   125   64   65 1    
   126   64  130 1    
   127   65   66 1    
   128   65   69 1    
   129   65  131 1    
   130   66   67 am   BACKBONE|DICT|INTERRES
   131   66   68 2    
   132   67  132 1    
   133   67  133 1    
   134   69   70 1    
   135   69  134 1    
   136   69  135 1    
   137   70   71 1    
   138   71  136 1    
   139   71  137 1    
@<TRIPOS>SUBSTRUCTURE
     1 UNK         1 GROUP             0       ****    0 ROOT    
