@<TRIPOS>MOLECULE
3R136
137   139    1
SMALL
USER_CHARGES


@<TRIPOS>ATOM
      1 CA         30.8284   18.5368   -1.8949 C.3       0 UNK        -0.1979 
      2 C          31.3180   19.9559   -2.1451 C.2       0 UNK         0.4864 
      3 O          31.8510   20.2362   -3.2205 O.2       0 UNK        -0.5359 
      4 N          31.1491   20.8437   -1.1573 N.am      1 UNK        -0.4318 
      5 CA         31.4926   22.2676   -1.2254 C.3       1 UNK         0.0824 
      6 C6         32.0658   22.7809    0.1257 C.3       12 UNK        -0.0944 
      7 S7         30.9560   22.5766    1.5640 S.3       12 UNK        -0.2672 
      8 C8         30.6129   24.3064    2.0150 C.3       12 UNK         0.0333 
      9 C9         30.0737   24.4055    3.4328 C.ar      12 UNK        -0.0807 
     10 C10        30.9416   24.6822    4.4935 C.ar      12 UNK        -0.0894 
     11 C11        30.4553   24.7935    5.7989 C.ar      12 UNK        -0.0804 
     12 C12        29.0894   24.6183    6.0396 C.ar      12 UNK        -0.0824 
     13 C13        28.2126   24.3277    4.9895 C.ar      12 UNK        -0.0762 
     14 C14        28.7103   24.2268    3.6858 C.ar      12 UNK        -0.0782 
     15 C15        26.7314   24.1095    5.2707 C.3       12 UNK         0.0230 
     16 S16        25.6836   25.4329    4.5869 S.3       12 UNK        -0.2608 
     17 C17        26.3533   26.9196    5.4078 C.3       12 UNK        -0.0989 
     18 CA         27.3253   27.6962    4.4854 C.3       5 UNK         0.0716 
     19 N          26.6708   28.1966    3.2777 N.am      5 UNK        -0.4135 
     20 C          26.9937   27.8411    2.0317 C.2       4 UNK         0.5031 
     21 O          27.8572   27.0088    1.7500 O.2       4 UNK        -0.5229 
     22 CA         26.2549   28.5763    0.9023 C.3       4 UNK         0.0329 
     23 CB         26.9971   29.8736    0.5376 C.3       4 UNK        -0.2001 
     24 N          26.1687   27.7270   -0.2849 N.am      4 UNK        -0.4303 
     25 C          25.3214   26.6983   -0.4292 C.2       3 UNK         0.5044 
     26 O          24.3948   26.4576    0.3460 O.2       3 UNK        -0.5152 
     27 CA         25.5447   25.7792   -1.6460 C.3       3 UNK         0.0319 
     28 CB         24.6416   26.2034   -2.8157 C.3       3 UNK        -0.2001 
     29 N          26.9414   25.7566   -2.0948 N.am      3 UNK        -0.4354 
     30 C          27.9393   25.1540   -1.4322 C.2       2 UNK         0.4964 
     31 O          27.7779   24.4769   -0.4149 O.2       2 UNK        -0.5047 
     32 CA         29.3540   25.4026   -1.9920 C.3       2 UNK         0.0288 
     33 CB         29.8443   26.8029   -1.5792 C.3       2 UNK        -0.2113 
     34 N          30.3487   24.4208   -1.5508 N.am      2 UNK        -0.4145 
     35 C          30.3191   23.1029   -1.7946 C.2       1 UNK         0.5006 
     36 O          29.4390   22.5594   -2.4694 O.2       1 UNK        -0.5103 
     37 C          27.9138   28.9170    5.2008 C.2       5 UNK         0.5055 
     38 O          27.2119   29.9228    5.3431 O.2       5 UNK        -0.5220 
     39 N          29.1845   28.8144    5.6167 N.am      6 UNK        -0.4450 
     40 CA         30.0402   29.8706    6.1754 C.3       6 UNK         0.0367 
     41 CB         29.4975   30.4128    7.5126 C.3       6 UNK        -0.1929 
     42 C          30.3448   30.9945    5.1707 C.2       6 UNK         0.5070 
     43 O          31.4998   31.1355    4.7592 O.2       6 UNK        -0.5237 
     44 N          29.3015   31.7425    4.7929 N.am      7 UNK        -0.4739 
     45 CA         29.2980   32.8576    3.8449 C.3       7 UNK         0.0276 
     46 CB         27.8774   33.4451    3.7996 C.3       7 UNK        -0.1927 
     47 C          29.7582   32.4639    2.4310 C.2       7 UNK         0.5013 
     48 O          29.7866   31.2797    2.0925 O.2       7 UNK        -0.5193 
     49 N          30.1261   33.4785    1.6337 N.am      8 UNK        -0.4253 
     50 CA         30.6795   33.3677    0.2735 C.3       8 UNK         0.0242 
     51 CB         29.6186   32.8233   -0.7083 C.3       8 UNK        -0.2000 
     52 C          32.0006   32.5696    0.2234 C.2       8 UNK         0.4948 
     53 O          32.2967   31.9316   -0.7880 O.2       8 UNK        -0.5275 
     54 N          32.7558   32.6154    1.3330 N.am      9 UNK        -0.4246 
     55 CA         33.9886   31.8731    1.6132 C.3       9 UNK         0.0261 
     56 CB         35.1326   32.3306    0.6822 C.3       9 UNK        -0.1959 
     57 C          33.8026   30.3410    1.6282 C.2       9 UNK         0.5033 
     58 O          34.7619   29.6181    1.3514 O.2       9 UNK        -0.5390 
     59 N          32.5933   29.8624    1.9666 N.am      10 UNK        -0.4215 
     60 CA         32.2800   28.4365    2.0989 C.3       10 UNK         0.0240 
     61 CB         30.7664   28.2457    2.2523 C.3       10 UNK        -0.1982 
     62 C          33.0378   27.7671    3.2563 C.2       10 UNK         0.4970 
     63 O          33.5599   26.6680    3.0688 O.2       10 UNK        -0.4916 
     64 N          33.1214   28.4583    4.4006 N.am      11 UNK        -0.4279 
     65 CA         33.9743   28.0849    5.5405 C.3       11 UNK         0.1003 
     66 C          34.2977   29.2508    6.5186 C.2       11 UNK         0.5709 
     67 N          33.7585   30.4546    6.3563 N.am      11 UNK        -0.7358 
     68 O          35.0936   29.0710    7.4373 O.2       11 UNK        -0.4999 
     69 C69        33.5448   26.7743    6.2649 C.3       12 UNK        -0.0954 
     70 S70        31.8891   26.8239    7.0299 S.3       12 UNK        -0.2268 
     71 C71        31.4030   25.0722    6.9565 C.3       12 UNK         0.0203 
     72 H72        31.6544   17.8323   -1.9892 H         1 UNK         0.0888 
     73 H73        30.3985   18.4233   -0.8997 H         1 UNK         0.0888 
     74 H74        30.0660   18.2691   -2.6259 H         1 UNK         0.0888 
     75 H75        30.6823   20.5610   -0.3070 H         1 UNK         0.3017 
     76 H76        32.2957   22.3863   -1.9560 H         1 UNK         0.0873 
     77 H77        32.9737   22.2190    0.3513 H         1 UNK         0.0745 
     78 H78        32.4021   23.8155    0.0466 H         1 UNK         0.0745 
     79 H79        31.5251   24.8988    1.9289 H         1 UNK         0.0705 
     80 H80        29.8958   24.7358    1.3139 H         1 UNK         0.0705 
     81 H81        31.9974   24.8103    4.3005 H         1 UNK         0.1334 
     82 H82        28.7101   24.6963    7.0495 H         1 UNK         0.1417 
     83 H83        28.0360   24.0184    2.8652 H         1 UNK         0.1562 
     84 H84        26.5456   24.0282    6.3428 H         1 UNK         0.0748 
     85 H85        26.4226   23.1576    4.8363 H         1 UNK         0.0748 
     86 H86        26.8480   26.6272    6.3359 H         1 UNK         0.0940 
     87 H87        25.5132   27.5523    5.7011 H         1 UNK         0.0940 
     88 H88        28.1529   27.0364    4.2182 H         1 UNK         0.0703 
     89 H89        26.0062   28.9423    3.4296 H         1 UNK         0.3081 
     90 H90        25.2449   28.8252    1.2352 H         1 UNK         0.0719 
     91 H91        28.0223   29.6761    0.2205 H         1 UNK         0.0809 
     92 H92        26.4931   30.4110   -0.2657 H         1 UNK         0.0809 
     93 H93        27.0524   30.5479    1.3935 H         1 UNK         0.0809 
     94 H94        26.9221   27.8113   -0.9491 H         1 UNK         0.2990 
     95 H95        25.2642   24.7663   -1.3486 H         1 UNK         0.0690 
     96 H96        24.7368   25.5194   -3.6593 H         1 UNK         0.0788 
     97 H97        24.8789   27.2082   -3.1676 H         1 UNK         0.0788 
     98 H98        23.5922   26.2025   -2.5172 H         1 UNK         0.0788 
     99 H99        27.1559   26.2822   -2.9305 H         1 UNK         0.2993 
    100 H100       29.3035   25.3491   -3.0816 H         1 UNK         0.0949 
    101 H101       30.8370   27.0133   -1.9779 H         1 UNK         0.0767 
    102 H102       29.1799   27.5832   -1.9519 H         1 UNK         0.0767 
    103 H103       29.8886   26.9066   -0.4936 H         1 UNK         0.0767 
    104 H104       31.0996   24.7810   -0.9831 H         1 UNK         0.3013 
    105 H105       29.6572   27.9337    5.4619 H         1 UNK         0.3121 
    106 H106       30.9967   29.4010    6.3961 H         1 UNK         0.0774 
    107 H107       28.5293   30.9016    7.4052 H         1 UNK         0.0815 
    108 H108       30.1835   31.1460    7.9386 H         1 UNK         0.0815 
    109 H109       29.3870   29.6120    8.2437 H         1 UNK         0.0815 
    110 H110       28.3920   31.4276    5.1181 H         1 UNK         0.2987 
    111 H111       29.9867   33.6135    4.2276 H         1 UNK         0.0949 
    112 H112       27.1534   32.7130    3.4386 H         1 UNK         0.0806 
    113 H113       27.5534   33.7766    4.7864 H         1 UNK         0.0806 
    114 H114       27.8235   34.3104    3.1377 H         1 UNK         0.0806 
    115 H115       30.0584   34.4197    1.9975 H         1 UNK         0.3010 
    116 H116       30.9294   34.3822   -0.0408 H         1 UNK         0.0829 
    117 H117       29.3806   31.7781   -0.5086 H         1 UNK         0.0813 
    118 H118       28.6924   33.3949   -0.6506 H         1 UNK         0.0813 
    119 H119       29.9715   32.8830   -1.7385 H         1 UNK         0.0813 
    120 H120       32.4083   33.1732    2.1005 H         1 UNK         0.3038 
    121 H121       34.2718   32.1415    2.6321 H         1 UNK         0.0769 
    122 H122       36.0853   31.8976    0.9896 H         1 UNK         0.0811 
    123 H123       34.9588   32.0291   -0.3511 H         1 UNK         0.0811 
    124 H124       35.2513   33.4138    0.7008 H         1 UNK         0.0811 
    125 H125       31.8365   30.5113    2.1562 H         1 UNK         0.3204 
    126 H126       32.5874   27.9416    1.1751 H         1 UNK         0.0748 
    127 H127       30.5105   27.1951    2.3875 H         1 UNK         0.0771 
    128 H128       30.3743   28.7894    3.1096 H         1 UNK         0.0771 
    129 H129       30.2326   28.5976    1.3694 H         1 UNK         0.0771 
    130 H130       32.6673   29.3603    4.4572 H         1 UNK         0.2980 
    131 H131       34.9493   27.8720    5.0978 H         1 UNK         0.0545 
    132 H132       34.0222   31.1759    7.0081 H         1 UNK         0.3459 
    133 H133       33.0688   30.6706    5.6456 H         1 UNK         0.3459 
    134 H134       33.5854   25.9412    5.5646 H         1 UNK         0.0616 
    135 H135       34.2650   26.5186    7.0440 H         1 UNK         0.0616 
    136 H136       32.2844   24.4339    6.8806 H         1 UNK         0.0634 
    137 H137       30.9275   24.8110    7.9030 H         1 UNK         0.0634 
@<TRIPOS>BOND
     1    1    2 1    
     2    1   72 1    
     3    1   73 1    
     4    1   74 1    
     5    2    3 2    
     6    2    4 am   BACKBONE|DICT|INTERRES
     7    4    5 1    
     8    4   75 1    
     9    5    6 1    
    10    5   35 1    
    11    5   76 1    
    12    6    7 1    
    13    6   77 1    
    14    6   78 1    
    15    7    8 1    
    16    8    9 1    
    17    8   79 1    
    18    8   80 1    
    19    9   10 ar   
    20    9   14 ar   
    21   10   11 ar   
    22   10   81 1    
    23   11   12 ar   
    24   11   71 1    
    25   12   13 ar   
    26   12   82 1    
    27   13   14 ar   
    28   13   15 1    
    29   14   83 1    
    30   15   16 1    
    31   15   84 1    
    32   15   85 1    
    33   16   17 1    
    34   17   18 1    
    35   17   86 1    
    36   17   87 1    
    37   18   19 1    
    38   18   37 1    
    39   18   88 1    
    40   19   20 am   BACKBONE|DICT|INTERRES
    41   19   89 1    
    42   20   21 2    
    43   20   22 1    
    44   22   23 1    
    45   22   24 1    
    46   22   90 1    
    47   23   91 1    
    48   23   92 1    
    49   23   93 1    
    50   24   25 am   BACKBONE|DICT|INTERRES
    51   24   94 1    
    52   25   26 2    
    53   25   27 1    
    54   27   28 1    
    55   27   29 1    
    56   27   95 1    
    57   28   96 1    
    58   28   97 1    
    59   28   98 1    
    60   29   30 am   BACKBONE|DICT|INTERRES
    61   29   99 1    
    62   30   31 2    
    63   30   32 1    
    64   32   33 1    
    65   32   34 1    
    66   32  100 1    
    67   33  101 1    
    68   33  102 1    
    69   33  103 1    
    70   34   35 am   BACKBONE|DICT|INTERRES
    71   34  104 1    
    72   35   36 2    
    73   37   38 2    
    74   37   39 am   BACKBONE|DICT|INTERRES
    75   39   40 1    
    76   39  105 1    
    77   40   41 1    
    78   40   42 1    
    79   40  106 1    
    80   41  107 1    
    81   41  108 1    
    82   41  109 1    
    83   42   43 2    
    84   42   44 am   BACKBONE|DICT|INTERRES
    85   44   45 1    
    86   44  110 1    
    87   45   46 1    
    88   45   47 1    
    89   45  111 1    
    90   46  112 1    
    91   46  113 1    
    92   46  114 1    
    93   47   48 2    
    94   47   49 am   BACKBONE|DICT|INTERRES
    95   49   50 1    
    96   49  115 1    
    97   50   51 1    
    98   50   52 1    
    99   50  116 1    
   100   51  117 1    
   101   51  118 1    
   102   51  119 1    
   103   52   53 2    
   104   52   54 am   BACKBONE|DICT|INTERRES
   105   54   55 1    
   106   54  120 1    
   107   55   56 1    
   108   55   57 1    
   109   55  121 1    
   110   56  122 1    
   111   56  123 1    
   112   56  124 1    
   113   57   58 2    
   114   57   59 am   BACKBONE|DICT|INTERRES
   115   59   60 1    
   116   59  125 1    
   117   60   61 1    
   118   60   62 1    
   119   60  126 1    
   120   61  127 1    
   121   61  128 1    
   122   61  129 1    
   123   62   63 2    
   124   62   64 am   BACKBONE|DICT|INTERRES
   125   64   65 1    
   126   64  130 1    
   127   65   66 1    
   128   65   69 1    
   129   65  131 1    
   130   66   67 am   BACKBONE|DICT|INTERRES
   131   66   68 2    
   132   67  132 1    
   133   67  133 1    
   134   69   70 1    
   135   69  134 1    
   136   69  135 1    
   137   70   71 1    
   138   71  136 1    
   139   71  137 1    
@<TRIPOS>SUBSTRUCTURE
     1 UNK         1 GROUP             0       ****    0 ROOT    
