@<TRIPOS>MOLECULE
3R136
137   139    1
SMALL
USER_CHARGES


@<TRIPOS>ATOM
      1 CA         34.1253   24.1228   -0.0563 C.3       0 UNK        -0.1979 
      2 C          32.7755   23.4327    0.0748 C.2       0 UNK         0.4864 
      3 O          32.4670   22.5442   -0.7208 O.2       0 UNK        -0.5359 
      4 N          31.9756   23.8473    1.0676 N.am      1 UNK        -0.4318 
      5 CA         30.6236   23.3568    1.3780 C.3       1 UNK         0.0824 
      6 C6         30.5621   21.8475    1.7733 C.3       12 UNK        -0.0944 
      7 S7         31.8366   21.2903    2.9573 S.3       12 UNK        -0.2672 
      8 C8         30.9966   21.5003    4.5631 C.3       12 UNK         0.0333 
      9 C9         30.8179   22.9643    4.9464 C.ar      12 UNK        -0.0807 
     10 C10        31.8875   23.8580    4.8428 C.ar      12 UNK        -0.0894 
     11 C11        31.7210   25.2083    5.1532 C.ar      12 UNK        -0.0804 
     12 C12        30.4858   25.6614    5.6240 C.ar      12 UNK        -0.0824 
     13 C13        29.4150   24.7727    5.7605 C.ar      12 UNK        -0.0762 
     14 C14        29.5842   23.4279    5.4130 C.ar      12 UNK        -0.0782 
     15 C15        28.0758   25.2538    6.2961 C.3       12 UNK         0.0230 
     16 S16        26.8805   25.5465    4.9574 S.3       12 UNK        -0.2608 
     17 C17        27.3275   27.2282    4.3999 C.3       12 UNK        -0.0989 
     18 CA         27.3248   27.3740    2.8526 C.3       5 UNK         0.0716 
     19 N          26.0693   26.9294    2.2321 N.am      5 UNK        -0.4135 
     20 C          24.8488   27.4646    2.3896 C.2       4 UNK         0.5031 
     21 O          24.6104   28.4334    3.1130 O.2       4 UNK        -0.5229 
     22 CA         23.7026   26.8154    1.5849 C.3       4 UNK         0.0329 
     23 CB         22.3997   27.6364    1.6355 C.3       4 UNK        -0.2001 
     24 N          24.0808   26.6168    0.1840 N.am      4 UNK        -0.4303 
     25 C          24.7525   25.5612   -0.2914 C.2       3 UNK         0.5044 
     26 O          25.0544   24.5874    0.4006 O.2       3 UNK        -0.5152 
     27 CA         25.2042   25.6098   -1.7662 C.3       3 UNK         0.0319 
     28 CB         24.9695   26.9734   -2.4544 C.3       3 UNK        -0.2001 
     29 N          26.6054   25.2015   -1.9315 N.am      3 UNK        -0.4354 
     30 C          27.6776   25.6895   -1.2885 C.2       2 UNK         0.4964 
     31 O          27.6417   26.5881   -0.4433 O.2       2 UNK        -0.5047 
     32 CA         29.0334   25.0975   -1.6977 C.3       2 UNK         0.0288 
     33 CB         29.8029   26.0913   -2.5815 C.3       2 UNK        -0.2113 
     34 N          29.8485   24.7394   -0.5349 N.am      2 UNK        -0.4145 
     35 C          29.5976   23.6887    0.2633 C.2       1 UNK         0.5006 
     36 O          28.6070   22.9677    0.1214 O.2       1 UNK        -0.5103 
     37 C          27.6775   28.8046    2.3840 C.2       5 UNK         0.5055 
     38 O          27.7973   29.7106    3.2111 O.2       5 UNK        -0.5220 
     39 N          27.7676   28.9749    1.0553 N.am      6 UNK        -0.4450 
     40 CA         27.8841   30.2382    0.3161 C.3       6 UNK         0.0367 
     41 CB         27.9618   29.9215   -1.1881 C.3       6 UNK        -0.1929 
     42 C          29.0632   31.1259    0.7552 C.2       6 UNK         0.5070 
     43 O          30.1662   30.9828    0.2259 O.2       6 UNK        -0.5237 
     44 N          28.7979   32.0238    1.7130 N.am      7 UNK        -0.4739 
     45 CA         29.7523   32.9104    2.3844 C.3       7 UNK         0.0276 
     46 CB         30.3767   33.9196    1.3959 C.3       7 UNK        -0.1927 
     47 C          30.8044   32.1156    3.1773 C.2       7 UNK         0.5013 
     48 O          31.9968   32.1832    2.8772 O.2       7 UNK        -0.5193 
     49 N          30.3517   31.3532    4.1817 N.am      8 UNK        -0.4253 
     50 CA         31.2155   30.7016    5.1740 C.3       8 UNK         0.0242 
     51 CB         30.3403   29.8994    6.1497 C.3       8 UNK        -0.2000 
     52 C          32.0770   31.7391    5.9350 C.2       8 UNK         0.4948 
     53 O          31.5762   32.8283    6.2170 O.2       8 UNK        -0.5275 
     54 N          33.3405   31.4526    6.2785 N.am      9 UNK        -0.4246 
     55 CA         34.0503   30.1751    6.1690 C.3       9 UNK         0.0261 
     56 CB         35.0981   30.1126    7.2953 C.3       9 UNK        -0.1959 
     57 C          34.7093   29.9013    4.8010 C.2       9 UNK         0.5033 
     58 O          35.3778   28.8744    4.6805 O.2       9 UNK        -0.5390 
     59 N          34.5320   30.7781    3.7980 N.am      10 UNK        -0.4215 
     60 CA         34.9978   30.5243    2.4259 C.3       10 UNK         0.0240 
     61 CB         35.0517   31.8292    1.6134 C.3       10 UNK        -0.1982 
     62 C          34.1454   29.4519    1.7213 C.2       10 UNK         0.4970 
     63 O          34.7128   28.6088    1.0261 O.2       10 UNK        -0.4916 
     64 N          32.8256   29.4892    1.9697 N.am      11 UNK        -0.4279 
     65 CA         31.8046   28.4774    1.6340 C.3       11 UNK         0.1003 
     66 C          31.8551   27.9344    0.1774 C.2       11 UNK         0.5709 
     67 N          31.8227   28.8143   -0.8132 N.am      11 UNK        -0.7358 
     68 O          31.9016   26.7300   -0.0610 O.2       11 UNK        -0.4999 
     69 C69        31.6266   27.3875    2.7296 C.3       12 UNK        -0.0954 
     70 S70        33.1343   26.4542    3.1590 S.3       12 UNK        -0.2268 
     71 C71        32.8743   26.1722    4.9360 C.3       12 UNK         0.0203 
     72 H72        34.9317   23.4071    0.1002 H         1 UNK         0.0888 
     73 H73        34.2315   24.5490   -1.0535 H         1 UNK         0.0888 
     74 H74        34.2409   24.9315    0.6657 H         1 UNK         0.0888 
     75 H75        32.2986   24.6030    1.6582 H         1 UNK         0.3017 
     76 H76        30.3004   23.9331    2.2460 H         1 UNK         0.0873 
     77 H77        29.5805   21.6059    2.1850 H         1 UNK         0.0745 
     78 H78        30.6692   21.2249    0.8831 H         1 UNK         0.0745 
     79 H79        30.0380   20.9798    4.5361 H         1 UNK         0.0705 
     80 H80        31.5923   21.0111    5.3347 H         1 UNK         0.0705 
     81 H81        32.8459   23.5108    4.4813 H         1 UNK         0.1334 
     82 H82        30.3576   26.7039    5.8784 H         1 UNK         0.1417 
     83 H83        28.7514   22.7442    5.5084 H         1 UNK         0.1562 
     84 H84        28.1941   26.1587    6.8945 H         1 UNK         0.0748 
     85 H85        27.6660   24.4999    6.9700 H         1 UNK         0.0748 
     86 H86        28.3122   27.4854    4.7887 H         1 UNK         0.0940 
     87 H87        26.6296   27.9312    4.8585 H         1 UNK         0.0940 
     88 H88        28.1063   26.7211    2.4598 H         1 UNK         0.0703 
     89 H89        26.1534   26.1454    1.5966 H         1 UNK         0.3081 
     90 H90        23.4992   25.8466    2.0464 H         1 UNK         0.0719 
     91 H91        22.5347   28.6352    1.2185 H         1 UNK         0.0809 
     92 H92        21.5998   27.1457    1.0809 H         1 UNK         0.0809 
     93 H93        22.0516   27.7554    2.6625 H         1 UNK         0.0809 
     94 H94        23.9041   27.3892   -0.4421 H         1 UNK         0.2990 
     95 H95        24.6029   24.8654   -2.2901 H         1 UNK         0.0690 
     96 H96        25.3180   26.9551   -3.4872 H         1 UNK         0.0788 
     97 H97        25.4953   27.7812   -1.9465 H         1 UNK         0.0788 
     98 H98        23.9094   27.2284   -2.4859 H         1 UNK         0.0788 
     99 H99        26.7529   24.4421   -2.5815 H         1 UNK         0.2993 
    100 H100       28.8672   24.1872   -2.2781 H         1 UNK         0.0949 
    101 H101       29.2600   26.2915   -3.5061 H         1 UNK         0.0767 
    102 H102       29.9459   27.0471   -2.0777 H         1 UNK         0.0767 
    103 H103       30.7847   25.7048   -2.8559 H         1 UNK         0.0767 
    104 H104       30.6609   25.3231   -0.3499 H         1 UNK         0.3013 
    105 H105       27.6811   28.1386    0.4772 H         1 UNK         0.3121 
    106 H106       26.9629   30.7987    0.4866 H         1 UNK         0.0774 
    107 H107       28.0852   30.8322   -1.7757 H         1 UNK         0.0815 
    108 H108       28.8038   29.2676   -1.4187 H         1 UNK         0.0815 
    109 H109       27.0542   29.4334   -1.5385 H         1 UNK         0.0815 
    110 H110       27.8703   32.0040    2.1158 H         1 UNK         0.2987 
    111 H111       29.1836   33.4848    3.1176 H         1 UNK         0.0949 
    112 H112       31.0073   34.6364    1.9233 H         1 UNK         0.0806 
    113 H113       31.0038   33.4311    0.6495 H         1 UNK         0.0806 
    114 H114       29.6094   34.4873    0.8699 H         1 UNK         0.0806 
    115 H115       29.3535   31.2879    4.3296 H         1 UNK         0.3010 
    116 H116       31.8538   30.0073    4.6308 H         1 UNK         0.0829 
    117 H117       29.7290   29.1690    5.6217 H         1 UNK         0.0813 
    118 H118       30.9492   29.3539    6.8714 H         1 UNK         0.0813 
    119 H119       29.6700   30.5487    6.7146 H         1 UNK         0.0813 
    120 H120       33.8641   32.1862    6.7344 H         1 UNK         0.3038 
    121 H121       33.3434   29.3635    6.3463 H         1 UNK         0.0769 
    122 H122       35.8645   30.8796    7.1770 H         1 UNK         0.0811 
    123 H123       35.6050   29.1466    7.3116 H         1 UNK         0.0811 
    124 H124       34.6379   30.2453    8.2748 H         1 UNK         0.0811 
    125 H125       33.9519   31.5957    3.9389 H         1 UNK         0.3204 
    126 H126       36.0192   30.1413    2.4859 H         1 UNK         0.0748 
    127 H127       35.6517   32.5870    2.1173 H         1 UNK         0.0771 
    128 H128       35.5059   31.6538    0.6374 H         1 UNK         0.0771 
    129 H129       34.0628   32.2484    1.4325 H         1 UNK         0.0771 
    130 H130       32.4770   30.3188    2.4369 H         1 UNK         0.2980 
    131 H131       30.8657   29.0253    1.6672 H         1 UNK         0.0545 
    132 H132       31.8648   28.4944   -1.7660 H         1 UNK         0.3459 
    133 H133       31.6339   29.7878   -0.6039 H         1 UNK         0.3459 
    134 H134       31.2521   27.8674    3.6341 H         1 UNK         0.0616 
    135 H135       30.8505   26.6754    2.4436 H         1 UNK         0.0616 
    136 H136       32.6983   27.1234    5.4397 H         1 UNK         0.0634 
    137 H137       33.7863   25.7571    5.3672 H         1 UNK         0.0634 
@<TRIPOS>BOND
     1    1    2 1    
     2    1   72 1    
     3    1   73 1    
     4    1   74 1    
     5    2    3 2    
     6    2    4 am   BACKBONE|DICT|INTERRES
     7    4    5 1    
     8    4   75 1    
     9    5    6 1    
    10    5   35 1    
    11    5   76 1    
    12    6    7 1    
    13    6   77 1    
    14    6   78 1    
    15    7    8 1    
    16    8    9 1    
    17    8   79 1    
    18    8   80 1    
    19    9   10 ar   
    20    9   14 ar   
    21   10   11 ar   
    22   10   81 1    
    23   11   12 ar   
    24   11   71 1    
    25   12   13 ar   
    26   12   82 1    
    27   13   14 ar   
    28   13   15 1    
    29   14   83 1    
    30   15   16 1    
    31   15   84 1    
    32   15   85 1    
    33   16   17 1    
    34   17   18 1    
    35   17   86 1    
    36   17   87 1    
    37   18   19 1    
    38   18   37 1    
    39   18   88 1    
    40   19   20 am   BACKBONE|DICT|INTERRES
    41   19   89 1    
    42   20   21 2    
    43   20   22 1    
    44   22   23 1    
    45   22   24 1    
    46   22   90 1    
    47   23   91 1    
    48   23   92 1    
    49   23   93 1    
    50   24   25 am   BACKBONE|DICT|INTERRES
    51   24   94 1    
    52   25   26 2    
    53   25   27 1    
    54   27   28 1    
    55   27   29 1    
    56   27   95 1    
    57   28   96 1    
    58   28   97 1    
    59   28   98 1    
    60   29   30 am   BACKBONE|DICT|INTERRES
    61   29   99 1    
    62   30   31 2    
    63   30   32 1    
    64   32   33 1    
    65   32   34 1    
    66   32  100 1    
    67   33  101 1    
    68   33  102 1    
    69   33  103 1    
    70   34   35 am   BACKBONE|DICT|INTERRES
    71   34  104 1    
    72   35   36 2    
    73   37   38 2    
    74   37   39 am   BACKBONE|DICT|INTERRES
    75   39   40 1    
    76   39  105 1    
    77   40   41 1    
    78   40   42 1    
    79   40  106 1    
    80   41  107 1    
    81   41  108 1    
    82   41  109 1    
    83   42   43 2    
    84   42   44 am   BACKBONE|DICT|INTERRES
    85   44   45 1    
    86   44  110 1    
    87   45   46 1    
    88   45   47 1    
    89   45  111 1    
    90   46  112 1    
    91   46  113 1    
    92   46  114 1    
    93   47   48 2    
    94   47   49 am   BACKBONE|DICT|INTERRES
    95   49   50 1    
    96   49  115 1    
    97   50   51 1    
    98   50   52 1    
    99   50  116 1    
   100   51  117 1    
   101   51  118 1    
   102   51  119 1    
   103   52   53 2    
   104   52   54 am   BACKBONE|DICT|INTERRES
   105   54   55 1    
   106   54  120 1    
   107   55   56 1    
   108   55   57 1    
   109   55  121 1    
   110   56  122 1    
   111   56  123 1    
   112   56  124 1    
   113   57   58 2    
   114   57   59 am   BACKBONE|DICT|INTERRES
   115   59   60 1    
   116   59  125 1    
   117   60   61 1    
   118   60   62 1    
   119   60  126 1    
   120   61  127 1    
   121   61  128 1    
   122   61  129 1    
   123   62   63 2    
   124   62   64 am   BACKBONE|DICT|INTERRES
   125   64   65 1    
   126   64  130 1    
   127   65   66 1    
   128   65   69 1    
   129   65  131 1    
   130   66   67 am   BACKBONE|DICT|INTERRES
   131   66   68 2    
   132   67  132 1    
   133   67  133 1    
   134   69   70 1    
   135   69  134 1    
   136   69  135 1    
   137   70   71 1    
   138   71  136 1    
   139   71  137 1    
@<TRIPOS>SUBSTRUCTURE
     1 UNK         1 GROUP             0       ****    0 ROOT    
