@<TRIPOS>MOLECULE
3R136
137   139    1
SMALL
USER_CHARGES


@<TRIPOS>ATOM
      1 CA         34.3074   23.8628   -1.4184 C.3       0 UNK        -0.1979 
      2 C          33.8636   24.5720   -0.1404 C.2       0 UNK         0.4864 
      3 O          34.7084   25.1510    0.5383 O.2       0 UNK        -0.5359 
      4 N          32.5754   24.5608    0.2416 N.am      1 UNK        -0.4318 
      5 CA         31.4209   23.9095   -0.4026 C.3       1 UNK         0.0824 
      6 C6         31.6021   22.3711   -0.5741 C.3       12 UNK        -0.0944 
      7 S7         30.0927   21.4244   -0.1795 S.3       12 UNK        -0.2672 
      8 C8         30.5406   20.6499    1.4071 C.3       12 UNK         0.0333 
      9 C9         30.3603   21.6054    2.5783 C.ar      12 UNK        -0.0807 
     10 C10        31.3733   22.5022    2.9290 C.ar      12 UNK        -0.0894 
     11 C11        31.2121   23.3702    4.0133 C.ar      12 UNK        -0.0804 
     12 C12        30.0340   23.3214    4.7663 C.ar      12 UNK        -0.0824 
     13 C13        29.0170   22.4233    4.4283 C.ar      12 UNK        -0.0762 
     14 C14        29.1825   21.5752    3.3294 C.ar      12 UNK        -0.0782 
     15 C15        27.7434   22.3434    5.2543 C.3       12 UNK         0.0230 
     16 S16        26.4560   23.4524    4.6045 S.3       12 UNK        -0.2608 
     17 C17        26.7274   24.9792    5.5701 C.3       12 UNK        -0.0989 
     18 CA         27.2127   26.1904    4.7265 C.3       5 UNK         0.0716 
     19 N          26.3436   26.4130    3.5614 N.am      5 UNK        -0.4135 
     20 C          26.6188   27.1598    2.4848 C.2       4 UNK         0.5031 
     21 O          27.6432   27.8349    2.3602 O.2       4 UNK        -0.5229 
     22 CA         25.5431   27.1877    1.3824 C.3       4 UNK         0.0329 
     23 CB         24.3984   28.1350    1.7803 C.3       4 UNK        -0.2001 
     24 N          26.0838   27.6239    0.0916 N.am      4 UNK        -0.4303 
     25 C          27.0044   26.9612   -0.6210 C.2       3 UNK         0.5044 
     26 O          27.4110   25.8322   -0.3326 O.2       3 UNK        -0.5152 
     27 CA         27.5893   27.6821   -1.8481 C.3       3 UNK         0.0319 
     28 CB         27.5908   29.2228   -1.7167 C.3       3 UNK        -0.2001 
     29 N          28.9495   27.1897   -2.0402 N.am      3 UNK        -0.4354 
     30 C          29.6768   27.2494   -3.1594 C.2       2 UNK         0.4964 
     31 O          29.2726   27.7483   -4.2105 O.2       2 UNK        -0.5047 
     32 CA         31.1053   26.6711   -3.1041 C.3       2 UNK         0.0288 
     33 CB         32.1482   27.7979   -3.1973 C.3       2 UNK        -0.2113 
     34 N          31.3886   25.8702   -1.9064 N.am      2 UNK        -0.4145 
     35 C          30.9515   24.6185   -1.6985 C.2       1 UNK         0.5006 
     36 O          30.2217   24.0263   -2.4944 O.2       1 UNK        -0.5103 
     37 C          27.3580   27.4612    5.6039 C.2       5 UNK         0.5055 
     38 O          27.0076   27.4393    6.7859 O.2       5 UNK        -0.5220 
     39 N          27.8402   28.5557    5.0114 N.am      6 UNK        -0.4450 
     40 CA         27.9756   29.8761    5.6133 C.3       6 UNK         0.0367 
     41 CB         26.6137   30.6013    5.5594 C.3       6 UNK        -0.1929 
     42 C          29.0784   30.6600    4.8878 C.2       6 UNK         0.5070 
     43 O          29.7788   30.1090    4.0311 O.2       6 UNK        -0.5237 
     44 N          29.1993   31.9504    5.2305 N.am      7 UNK        -0.4739 
     45 CA         30.1938   32.8998    4.7161 C.3       7 UNK         0.0276 
     46 CB         29.9705   34.2708    5.3731 C.3       7 UNK        -0.1927 
     47 C          30.2302   33.0411    3.1835 C.2       7 UNK         0.5013 
     48 O          31.2905   33.3526    2.6432 O.2       7 UNK        -0.5193 
     49 N          29.1092   32.7454    2.5085 N.am      8 UNK        -0.4253 
     50 CA         28.9912   32.6536    1.0486 C.3       8 UNK         0.0242 
     51 CB         27.5342   32.3278    0.6798 C.3       8 UNK        -0.2000 
     52 C          29.9431   31.6227    0.4099 C.2       8 UNK         0.4948 
     53 O          30.4043   31.8463   -0.7093 O.2       8 UNK        -0.5275 
     54 N          30.2328   30.5344    1.1362 N.am      9 UNK        -0.4246 
     55 CA         31.2004   29.5021    0.7585 C.3       9 UNK         0.0261 
     56 CB         30.5559   28.1298    1.0084 C.3       9 UNK        -0.1959 
     57 C          32.5108   29.6140    1.5593 C.2       9 UNK         0.5033 
     58 O          33.3856   28.7669    1.3809 O.2       9 UNK        -0.5390 
     59 N          32.6084   30.6141    2.4508 N.am      10 UNK        -0.4215 
     60 CA         33.6150   30.7771    3.5088 C.3       10 UNK         0.0240 
     61 CB         35.0184   31.0231    2.9145 C.3       10 UNK        -0.1982 
     62 C          33.5890   29.6335    4.5481 C.2       10 UNK         0.4970 
     63 O          34.6189   29.3404    5.1584 O.2       10 UNK        -0.4916 
     64 N          32.4163   29.0154    4.7330 N.am      11 UNK        -0.4279 
     65 CA         32.1685   27.9106    5.6662 C.3       11 UNK         0.1003 
     66 C          31.6425   28.4217    7.0346 C.2       11 UNK         0.5709 
     67 N          31.6729   27.5790    8.0582 N.am      11 UNK        -0.7358 
     68 O          31.1996   29.5590    7.1853 O.2       11 UNK        -0.4999 
     69 C69        31.2101   26.8667    5.0333 C.3       12 UNK        -0.0954 
     70 S70        32.0015   25.9888    3.6426 S.3       12 UNK        -0.2268 
     71 C71        32.3197   24.3508    4.3661 C.3       12 UNK         0.0203 
     72 H72        34.4168   22.7936   -1.2411 H         1 UNK         0.0888 
     73 H73        33.6148   24.0122   -2.2439 H         1 UNK         0.0888 
     74 H74        35.2763   24.2436   -1.7413 H         1 UNK         0.0888 
     75 H75        32.3516   25.0424    1.1030 H         1 UNK         0.3017 
     76 H76        30.6071   24.0714    0.3070 H         1 UNK         0.0873 
     77 H77        31.9135   22.1134   -1.5882 H         1 UNK         0.0745 
     78 H78        32.4063   22.0050    0.0642 H         1 UNK         0.0745 
     79 H79        31.5656   20.2781    1.3723 H         1 UNK         0.0705 
     80 H80        29.9118   19.7695    1.5484 H         1 UNK         0.0705 
     81 H81        32.2894   22.5277    2.3559 H         1 UNK         0.1334 
     82 H82        29.9076   23.9801    5.6137 H         1 UNK         0.1417 
     83 H83        28.3947   20.8829    3.0640 H         1 UNK         0.1562 
     84 H84        27.9485   22.5573    6.3041 H         1 UNK         0.0748 
     85 H85        27.3589   21.3225    5.2332 H         1 UNK         0.0748 
     86 H86        27.4336   24.7815    6.3782 H         1 UNK         0.0940 
     87 H87        25.7801   25.2148    6.0597 H         1 UNK         0.0940 
     88 H88        28.2091   25.9509    4.3483 H         1 UNK         0.0703 
     89 H89        25.4699   25.9080    3.5811 H         1 UNK         0.3081 
     90 H90        25.1464   26.1776    1.2601 H         1 UNK         0.0719 
     91 H91        24.7521   29.1578    1.9196 H         1 UNK         0.0809 
     92 H92        23.6141   28.1509    1.0233 H         1 UNK         0.0809 
     93 H93        23.9334   27.8226    2.7163 H         1 UNK         0.0809 
     94 H94        25.8354   28.5555   -0.2046 H         1 UNK         0.2990 
     95 H95        26.9877   27.3949   -2.7126 H         1 UNK         0.0690 
     96 H96        28.1020   29.6965   -2.5549 H         1 UNK         0.0788 
     97 H97        28.0913   29.5459   -0.8036 H         1 UNK         0.0788 
     98 H98        26.5777   29.6255   -1.7031 H         1 UNK         0.0788 
     99 H99        29.3160   26.6751   -1.2512 H         1 UNK         0.2993 
    100 H100       31.2208   26.0288   -3.9801 H         1 UNK         0.0949 
    101 H101       33.1619   27.3988   -3.2393 H         1 UNK         0.0767 
    102 H102       32.0005   28.3947   -4.0987 H         1 UNK         0.0767 
    103 H103       32.0883   28.4759   -2.3457 H         1 UNK         0.0767 
    104 H104       31.9949   26.2877   -1.2151 H         1 UNK         0.3013 
    105 H105       28.1044   28.4951    4.0275 H         1 UNK         0.3121 
    106 H106       28.2903   29.7636    6.6530 H         1 UNK         0.0774 
    107 H107       26.6459   31.5644    6.0691 H         1 UNK         0.0815 
    108 H108       26.2963   30.7809    4.5313 H         1 UNK         0.0815 
    109 H109       25.8339   30.0167    6.0478 H         1 UNK         0.0815 
    110 H110       28.5801   32.3075    5.9440 H         1 UNK         0.2987 
    111 H111       31.1735   32.5301    5.0253 H         1 UNK         0.0949 
    112 H112       28.9862   34.6770    5.1363 H         1 UNK         0.0806 
    113 H113       30.0585   34.2114    6.4582 H         1 UNK         0.0806 
    114 H114       30.7123   34.9942    5.0309 H         1 UNK         0.0806 
    115 H115       28.2916   32.4984    3.0464 H         1 UNK         0.3010 
    116 H116       29.2436   33.6326    0.6361 H         1 UNK         0.0829 
    117 H117       26.8501   33.0941    1.0448 H         1 UNK         0.0813 
    118 H118       27.4089   32.2738   -0.4027 H         1 UNK         0.0813 
    119 H119       27.2176   31.3685    1.0923 H         1 UNK         0.0813 
    120 H120       29.8157   30.4286    2.0574 H         1 UNK         0.3038 
    121 H121       31.4511   29.5819   -0.3005 H         1 UNK         0.0769 
    122 H122       31.2079   27.3183    0.6874 H         1 UNK         0.0811 
    123 H123       29.6140   28.0312    0.4747 H         1 UNK         0.0811 
    124 H124       30.3452   27.9776    2.0676 H         1 UNK         0.0811 
    125 H125       31.8684   31.3054    2.4557 H         1 UNK         0.3204 
    126 H126       33.3322   31.6788    4.0531 H         1 UNK         0.0748 
    127 H127       35.7292   31.3027    3.6930 H         1 UNK         0.0771 
    128 H128       35.4122   30.1339    2.4213 H         1 UNK         0.0771 
    129 H129       35.0033   31.8332    2.1854 H         1 UNK         0.0771 
    130 H130       31.5910   29.3709    4.2619 H         1 UNK         0.2980 
    131 H131       33.1159   27.4093    5.8741 H         1 UNK         0.0545 
    132 H132       32.0398   26.6457    7.9590 H         1 UNK         0.3459 
    133 H133       31.3335   27.8902    8.9547 H         1 UNK         0.3459 
    134 H134       30.8697   26.1401    5.7714 H         1 UNK         0.0616 
    135 H135       30.3128   27.3559    4.6552 H         1 UNK         0.0616 
    136 H136       33.2751   23.9878    3.9840 H         1 UNK         0.0634 
    137 H137       32.4386   24.4235    5.4480 H         1 UNK         0.0634 
@<TRIPOS>BOND
     1    1    2 1    
     2    1   72 1    
     3    1   73 1    
     4    1   74 1    
     5    2    3 2    
     6    2    4 am   BACKBONE|DICT|INTERRES
     7    4    5 1    
     8    4   75 1    
     9    5    6 1    
    10    5   35 1    
    11    5   76 1    
    12    6    7 1    
    13    6   77 1    
    14    6   78 1    
    15    7    8 1    
    16    8    9 1    
    17    8   79 1    
    18    8   80 1    
    19    9   10 ar   
    20    9   14 ar   
    21   10   11 ar   
    22   10   81 1    
    23   11   12 ar   
    24   11   71 1    
    25   12   13 ar   
    26   12   82 1    
    27   13   14 ar   
    28   13   15 1    
    29   14   83 1    
    30   15   16 1    
    31   15   84 1    
    32   15   85 1    
    33   16   17 1    
    34   17   18 1    
    35   17   86 1    
    36   17   87 1    
    37   18   19 1    
    38   18   37 1    
    39   18   88 1    
    40   19   20 am   BACKBONE|DICT|INTERRES
    41   19   89 1    
    42   20   21 2    
    43   20   22 1    
    44   22   23 1    
    45   22   24 1    
    46   22   90 1    
    47   23   91 1    
    48   23   92 1    
    49   23   93 1    
    50   24   25 am   BACKBONE|DICT|INTERRES
    51   24   94 1    
    52   25   26 2    
    53   25   27 1    
    54   27   28 1    
    55   27   29 1    
    56   27   95 1    
    57   28   96 1    
    58   28   97 1    
    59   28   98 1    
    60   29   30 am   BACKBONE|DICT|INTERRES
    61   29   99 1    
    62   30   31 2    
    63   30   32 1    
    64   32   33 1    
    65   32   34 1    
    66   32  100 1    
    67   33  101 1    
    68   33  102 1    
    69   33  103 1    
    70   34   35 am   BACKBONE|DICT|INTERRES
    71   34  104 1    
    72   35   36 2    
    73   37   38 2    
    74   37   39 am   BACKBONE|DICT|INTERRES
    75   39   40 1    
    76   39  105 1    
    77   40   41 1    
    78   40   42 1    
    79   40  106 1    
    80   41  107 1    
    81   41  108 1    
    82   41  109 1    
    83   42   43 2    
    84   42   44 am   BACKBONE|DICT|INTERRES
    85   44   45 1    
    86   44  110 1    
    87   45   46 1    
    88   45   47 1    
    89   45  111 1    
    90   46  112 1    
    91   46  113 1    
    92   46  114 1    
    93   47   48 2    
    94   47   49 am   BACKBONE|DICT|INTERRES
    95   49   50 1    
    96   49  115 1    
    97   50   51 1    
    98   50   52 1    
    99   50  116 1    
   100   51  117 1    
   101   51  118 1    
   102   51  119 1    
   103   52   53 2    
   104   52   54 am   BACKBONE|DICT|INTERRES
   105   54   55 1    
   106   54  120 1    
   107   55   56 1    
   108   55   57 1    
   109   55  121 1    
   110   56  122 1    
   111   56  123 1    
   112   56  124 1    
   113   57   58 2    
   114   57   59 am   BACKBONE|DICT|INTERRES
   115   59   60 1    
   116   59  125 1    
   117   60   61 1    
   118   60   62 1    
   119   60  126 1    
   120   61  127 1    
   121   61  128 1    
   122   61  129 1    
   123   62   63 2    
   124   62   64 am   BACKBONE|DICT|INTERRES
   125   64   65 1    
   126   64  130 1    
   127   65   66 1    
   128   65   69 1    
   129   65  131 1    
   130   66   67 am   BACKBONE|DICT|INTERRES
   131   66   68 2    
   132   67  132 1    
   133   67  133 1    
   134   69   70 1    
   135   69  134 1    
   136   69  135 1    
   137   70   71 1    
   138   71  136 1    
   139   71  137 1    
@<TRIPOS>SUBSTRUCTURE
     1 UNK         1 GROUP             0       ****    0 ROOT    
