@<TRIPOS>MOLECULE
3R136
137   139    1
SMALL
USER_CHARGES


@<TRIPOS>ATOM
      1 CA         29.9200   28.7435   -2.2396 C.3       0 UNK        -0.1979 
      2 C          29.2319   27.5575   -1.5832 C.2       0 UNK         0.4864 
      3 O          28.0055   27.5471   -1.4842 O.2       0 UNK        -0.5359 
      4 N          30.0121   26.5494   -1.1648 N.am      1 UNK        -0.4318 
      5 CA         29.5900   25.3447   -0.4293 C.3       1 UNK         0.0824 
      6 C6         30.7651   24.3539   -0.2191 C.3       12 UNK        -0.0944 
      7 S7         32.2966   25.1330    0.3943 S.3       12 UNK        -0.2672 
      8 C8         32.7865   24.0010    1.7312 C.3       12 UNK         0.0333 
      9 C9         32.1072   24.3482    3.0465 C.ar      12 UNK        -0.0807 
     10 C10        32.5612   25.4432    3.7859 C.ar      12 UNK        -0.0894 
     11 C11        31.9882   25.7563    5.0206 C.ar      12 UNK        -0.0804 
     12 C12        30.9529   24.9609    5.5162 C.ar      12 UNK        -0.0824 
     13 C13        30.4789   23.8687    4.7816 C.ar      12 UNK        -0.0762 
     14 C14        31.0588   23.5673    3.5442 C.ar      12 UNK        -0.0782 
     15 C15        29.3586   23.0010    5.3400 C.3       12 UNK         0.0230 
     16 S16        27.7318   23.4288    4.6395 S.3       12 UNK        -0.2608 
     17 C17        27.5117   25.1469    5.2141 C.3       12 UNK        -0.0989 
     18 CA         27.6383   26.1469    4.0406 C.3       5 UNK         0.0716 
     19 N          26.5168   26.0110    3.0996 N.am      5 UNK        -0.4135 
     20 C          26.4168   26.6627    1.9360 C.2       4 UNK         0.5031 
     21 O          27.2923   27.4083    1.4977 O.2       4 UNK        -0.5229 
     22 CA         25.0719   26.5646    1.2132 C.3       4 UNK         0.0329 
     23 CB         24.0969   27.6093    1.7995 C.3       4 UNK        -0.2001 
     24 N          25.2739   26.7859   -0.2170 N.am      4 UNK        -0.4303 
     25 C          24.3474   26.6017   -1.1675 C.2       3 UNK         0.5044 
     26 O          23.1867   26.2545   -0.9449 O.2       3 UNK        -0.5152 
     27 CA         24.8022   26.7945   -2.6200 C.3       3 UNK         0.0319 
     28 CB         25.0546   28.2777   -2.9413 C.3       3 UNK        -0.2001 
     29 N          26.0055   26.0044   -2.8749 N.am      3 UNK        -0.4354 
     30 C          25.9908   24.6962   -3.1731 C.2       2 UNK         0.4964 
     31 O          24.9606   24.0569   -3.3905 O.2       2 UNK        -0.5047 
     32 CA         27.3420   23.9624   -3.2447 C.3       2 UNK         0.0288 
     33 CB         27.8303   23.8757   -4.7001 C.3       2 UNK        -0.2113 
     34 N          28.3880   24.5750   -2.4252 N.am      2 UNK        -0.4145 
     35 C          28.4141   24.5870   -1.0836 C.2       1 UNK         0.5006 
     36 O          27.5705   24.0370   -0.3743 O.2       1 UNK        -0.5103 
     37 C          27.7969   27.5935    4.5626 C.2       5 UNK         0.5055 
     38 O          28.9189   28.0266    4.8203 O.2       5 UNK        -0.5220 
     39 N          26.6790   28.3269    4.6694 N.am      6 UNK        -0.4450 
     40 CA         26.6415   29.7500    5.0119 C.3       6 UNK         0.0367 
     41 CB         25.2235   30.1091    5.4865 C.3       6 UNK        -0.1929 
     42 C          27.0673   30.6768    3.8553 C.2       6 UNK         0.5070 
     43 O          27.4021   31.8321    4.1173 O.2       6 UNK        -0.5237 
     44 N          27.0328   30.1832    2.6081 N.am      7 UNK        -0.4739 
     45 CA         27.4235   30.9340    1.4104 C.3       7 UNK         0.0276 
     46 CB         26.5498   30.4910    0.2241 C.3       7 UNK        -0.1927 
     47 C          28.9163   30.7732    1.0746 C.2       7 UNK         0.5013 
     48 O          29.4312   31.5492    0.2678 O.2       7 UNK        -0.5193 
     49 N          29.5845   29.7815    1.6808 N.am      8 UNK        -0.4253 
     50 CA         31.0205   29.5327    1.5523 C.3       8 UNK         0.0242 
     51 CB         31.3520   28.1916    2.2192 C.3       8 UNK        -0.2000 
     52 C          31.8560   30.6662    2.1735 C.2       8 UNK         0.4948 
     53 O          31.4423   31.2545    3.1755 O.2       8 UNK        -0.5275 
     54 N          33.0188   30.9450    1.5684 N.am      9 UNK        -0.4246 
     55 CA         33.9045   32.0507    1.9458 C.3       9 UNK         0.0261 
     56 CB         34.9797   32.2438    0.8632 C.3       9 UNK        -0.1959 
     57 C          34.5532   31.8863    3.3306 C.2       9 UNK         0.5033 
     58 O          34.5996   32.8556    4.0899 O.2       9 UNK        -0.5390 
     59 N          35.0416   30.6771    3.6308 N.am      10 UNK        -0.4215 
     60 CA         35.7109   30.3132    4.8778 C.3       10 UNK         0.0240 
     61 CB         37.0957   30.9893    4.9697 C.3       10 UNK        -0.1982 
     62 C          35.8629   28.7897    4.9371 C.2       10 UNK         0.4970 
     63 O          35.8347   28.1325    3.8931 O.2       10 UNK        -0.4916 
     64 N          36.0522   28.2722    6.1536 N.am      11 UNK        -0.4279 
     65 CA         36.3238   26.8573    6.4520 C.3       11 UNK         0.1003 
     66 C          37.0553   26.6413    7.8096 C.2       11 UNK         0.5709 
     67 N          37.6217   27.6706    8.4314 N.am      11 UNK        -0.7358 
     68 O          37.1389   25.5190    8.3034 O.2       11 UNK        -0.4999 
     69 C69        35.0872   25.9367    6.2461 C.3       12 UNK        -0.0954 
     70 S70        33.5987   26.4585    7.1693 S.3       12 UNK        -0.2268 
     71 C71        32.4817   26.9549    5.8188 C.3       12 UNK         0.0203 
     72 H72        29.6529   28.7933   -3.2946 H         1 UNK         0.0888 
     73 H73        29.5998   29.6701   -1.7650 H         1 UNK         0.0888 
     74 H74        31.0052   28.6804   -2.1630 H         1 UNK         0.0888 
     75 H75        31.0127   26.6256   -1.2834 H         1 UNK         0.3017 
     76 H76        29.2479   25.6844    0.5504 H         1 UNK         0.0873 
     77 H77        30.4601   23.5655    0.4717 H         1 UNK         0.0745 
     78 H78        31.0198   23.8520   -1.1550 H         1 UNK         0.0745 
     79 H79        33.8676   24.0688    1.8622 H         1 UNK         0.0705 
     80 H80        32.5844   22.9684    1.4422 H         1 UNK         0.0705 
     81 H81        33.3671   26.0507    3.3967 H         1 UNK         0.1334 
     82 H82        30.5205   25.1961    6.4788 H         1 UNK         0.1417 
     83 H83        30.7011   22.7180    2.9781 H         1 UNK         0.1562 
     84 H84        29.3155   23.0817    6.4274 H         1 UNK         0.0748 
     85 H85        29.5686   21.9523    5.1246 H         1 UNK         0.0748 
     86 H86        28.2361   25.3622    6.0001 H         1 UNK         0.0940 
     87 H87        26.5334   25.2324    5.6909 H         1 UNK         0.0940 
     88 H88        28.5549   25.9192    3.4903 H         1 UNK         0.0703 
     89 H89        25.7651   25.4019    3.3891 H         1 UNK         0.3081 
     90 H90        24.6696   25.5593    1.3541 H         1 UNK         0.0719 
     91 H91        23.9711   27.4757    2.8744 H         1 UNK         0.0809 
     92 H92        23.1036   27.5309    1.3587 H         1 UNK         0.0809 
     93 H93        24.4520   28.6272    1.6353 H         1 UNK         0.0809 
     94 H94        26.2187   27.0620   -0.4779 H         1 UNK         0.2990 
     95 H95        24.0002   26.4486   -3.2760 H         1 UNK         0.0690 
     96 H96        25.3559   28.4105   -3.9804 H         1 UNK         0.0788 
     97 H97        25.8308   28.7119   -2.3117 H         1 UNK         0.0788 
     98 H98        24.1488   28.8657   -2.7884 H         1 UNK         0.0788 
     99 H99        26.8867   26.4482   -2.6319 H         1 UNK         0.2993 
    100 H100       27.1789   22.9473   -2.8759 H         1 UNK         0.0949 
    101 H101       27.0836   23.3950   -5.3341 H         1 UNK         0.0767 
    102 H102       28.0270   24.8631   -5.1198 H         1 UNK         0.0767 
    103 H103       28.7451   23.2876   -4.7780 H         1 UNK         0.0767 
    104 H104       29.1255   25.0588   -2.9166 H         1 UNK         0.3013 
    105 H105       25.7948   27.8888    4.4593 H         1 UNK         0.3121 
    106 H106       27.3327   29.9240    5.8396 H         1 UNK         0.0774 
    107 H107       25.1661   31.1568    5.7854 H         1 UNK         0.0815 
    108 H108       24.4825   29.9545    4.7011 H         1 UNK         0.0815 
    109 H109       24.9299   29.5125    6.3503 H         1 UNK         0.0815 
    110 H110       26.8139   29.2049    2.4631 H         1 UNK         0.2987 
    111 H111       27.2448   31.9990    1.5748 H         1 UNK         0.0949 
    112 H112       25.4902   30.6389    0.4315 H         1 UNK         0.0806 
    113 H113       26.7876   31.0666   -0.6713 H         1 UNK         0.0806 
    114 H114       26.7019   29.4407   -0.0212 H         1 UNK         0.0806 
    115 H115       29.0791   29.1991    2.3330 H         1 UNK         0.3010 
    116 H116       31.2513   29.4622    0.4876 H         1 UNK         0.0829 
    117 H117       30.7475   27.3814    1.8113 H         1 UNK         0.0813 
    118 H118       32.3984   27.9269    2.0646 H         1 UNK         0.0813 
    119 H119       31.1778   28.2248    3.2953 H         1 UNK         0.0813 
    120 H120       33.2893   30.4057    0.7584 H         1 UNK         0.3038 
    121 H121       33.2977   32.9584    1.9784 H         1 UNK         0.0769 
    122 H122       35.6029   31.3565    0.7454 H         1 UNK         0.0811 
    123 H123       35.6410   33.0743    1.1151 H         1 UNK         0.0811 
    124 H124       34.5325   32.4720   -0.1046 H         1 UNK         0.0811 
    125 H125       34.9525   29.9152    2.9693 H         1 UNK         0.3204 
    126 H126       35.0858   30.6337    5.7140 H         1 UNK         0.0748 
    127 H127       37.6233   30.6916    5.8766 H         1 UNK         0.0771 
    128 H128       37.7283   30.7222    4.1221 H         1 UNK         0.0771 
    129 H129       37.0148   32.0759    4.9948 H         1 UNK         0.0771 
    130 H130       36.0205   28.8789    6.9597 H         1 UNK         0.2980 
    131 H131       37.0688   26.5338    5.7227 H         1 UNK         0.0545 
    132 H132       37.6491   28.5892    8.0218 H         1 UNK         0.3459 
    133 H133       38.0943   27.5032    9.3061 H         1 UNK         0.3459 
    134 H134       35.3156   24.9057    6.5204 H         1 UNK         0.0616 
    135 H135       34.8596   25.8953    5.1829 H         1 UNK         0.0616 
    136 H136       32.9883   27.6705    5.1696 H         1 UNK         0.0634 
    137 H137       31.6262   27.4830    6.2428 H         1 UNK         0.0634 
@<TRIPOS>BOND
     1    1    2 1    
     2    1   72 1    
     3    1   73 1    
     4    1   74 1    
     5    2    3 2    
     6    2    4 am   BACKBONE|DICT|INTERRES
     7    4    5 1    
     8    4   75 1    
     9    5    6 1    
    10    5   35 1    
    11    5   76 1    
    12    6    7 1    
    13    6   77 1    
    14    6   78 1    
    15    7    8 1    
    16    8    9 1    
    17    8   79 1    
    18    8   80 1    
    19    9   10 ar   
    20    9   14 ar   
    21   10   11 ar   
    22   10   81 1    
    23   11   12 ar   
    24   11   71 1    
    25   12   13 ar   
    26   12   82 1    
    27   13   14 ar   
    28   13   15 1    
    29   14   83 1    
    30   15   16 1    
    31   15   84 1    
    32   15   85 1    
    33   16   17 1    
    34   17   18 1    
    35   17   86 1    
    36   17   87 1    
    37   18   19 1    
    38   18   37 1    
    39   18   88 1    
    40   19   20 am   BACKBONE|DICT|INTERRES
    41   19   89 1    
    42   20   21 2    
    43   20   22 1    
    44   22   23 1    
    45   22   24 1    
    46   22   90 1    
    47   23   91 1    
    48   23   92 1    
    49   23   93 1    
    50   24   25 am   BACKBONE|DICT|INTERRES
    51   24   94 1    
    52   25   26 2    
    53   25   27 1    
    54   27   28 1    
    55   27   29 1    
    56   27   95 1    
    57   28   96 1    
    58   28   97 1    
    59   28   98 1    
    60   29   30 am   BACKBONE|DICT|INTERRES
    61   29   99 1    
    62   30   31 2    
    63   30   32 1    
    64   32   33 1    
    65   32   34 1    
    66   32  100 1    
    67   33  101 1    
    68   33  102 1    
    69   33  103 1    
    70   34   35 am   BACKBONE|DICT|INTERRES
    71   34  104 1    
    72   35   36 2    
    73   37   38 2    
    74   37   39 am   BACKBONE|DICT|INTERRES
    75   39   40 1    
    76   39  105 1    
    77   40   41 1    
    78   40   42 1    
    79   40  106 1    
    80   41  107 1    
    81   41  108 1    
    82   41  109 1    
    83   42   43 2    
    84   42   44 am   BACKBONE|DICT|INTERRES
    85   44   45 1    
    86   44  110 1    
    87   45   46 1    
    88   45   47 1    
    89   45  111 1    
    90   46  112 1    
    91   46  113 1    
    92   46  114 1    
    93   47   48 2    
    94   47   49 am   BACKBONE|DICT|INTERRES
    95   49   50 1    
    96   49  115 1    
    97   50   51 1    
    98   50   52 1    
    99   50  116 1    
   100   51  117 1    
   101   51  118 1    
   102   51  119 1    
   103   52   53 2    
   104   52   54 am   BACKBONE|DICT|INTERRES
   105   54   55 1    
   106   54  120 1    
   107   55   56 1    
   108   55   57 1    
   109   55  121 1    
   110   56  122 1    
   111   56  123 1    
   112   56  124 1    
   113   57   58 2    
   114   57   59 am   BACKBONE|DICT|INTERRES
   115   59   60 1    
   116   59  125 1    
   117   60   61 1    
   118   60   62 1    
   119   60  126 1    
   120   61  127 1    
   121   61  128 1    
   122   61  129 1    
   123   62   63 2    
   124   62   64 am   BACKBONE|DICT|INTERRES
   125   64   65 1    
   126   64  130 1    
   127   65   66 1    
   128   65   69 1    
   129   65  131 1    
   130   66   67 am   BACKBONE|DICT|INTERRES
   131   66   68 2    
   132   67  132 1    
   133   67  133 1    
   134   69   70 1    
   135   69  134 1    
   136   69  135 1    
   137   70   71 1    
   138   71  136 1    
   139   71  137 1    
@<TRIPOS>SUBSTRUCTURE
     1 UNK         1 GROUP             0       ****    0 ROOT    
