@<TRIPOS>MOLECULE
3R136
137   139    1
SMALL
USER_CHARGES


@<TRIPOS>ATOM
      1 CA         27.6294   21.2788    5.3291 C.3       0 UNK        -0.1979 
      2 C          27.6030   22.5317    4.4656 C.2       0 UNK         0.4864 
      3 O          27.0179   23.5352    4.8742 O.2       0 UNK        -0.5359 
      4 N          28.2321   22.4680    3.2823 N.am      1 UNK        -0.4318 
      5 CA         28.3462   23.5410    2.2822 C.3       1 UNK         0.0824 
      6 C6         29.2089   24.7483    2.7455 C.3       12 UNK        -0.0944 
      7 S7         30.8592   24.2812    3.3793 S.3       12 UNK        -0.2672 
      8 C8         31.7749   23.8644    1.8578 C.3       12 UNK         0.0333 
      9 C9         32.0437   25.0799    0.9820 C.ar      12 UNK        -0.0807 
     10 C10        33.0134   26.0119    1.3599 C.ar      12 UNK        -0.0894 
     11 C11        33.2773   27.1258    0.5588 C.ar      12 UNK        -0.0804 
     12 C12        32.5493   27.3149   -0.6193 C.ar      12 UNK        -0.0824 
     13 C13        31.5699   26.3947   -1.0106 C.ar      12 UNK        -0.0762 
     14 C14        31.3406   25.2648   -0.2130 C.ar      12 UNK        -0.0782 
     15 C15        30.7749   26.6555   -2.2933 C.3       12 UNK         0.0230 
     16 S16        29.0297   26.1008   -2.2642 S.3       12 UNK        -0.2608 
     17 C17        28.4089   26.8467   -0.7217 C.3       12 UNK        -0.0989 
     18 CA         27.5507   28.1141   -0.9431 C.3       5 UNK         0.0716 
     19 N          26.2181   27.7738   -1.4446 N.am      5 UNK        -0.4135 
     20 C          25.3472   28.6541   -1.9521 C.2       4 UNK         0.5031 
     21 O          25.6345   29.8302   -2.1859 O.2       4 UNK        -0.5229 
     22 CA         23.9038   28.1670   -2.2008 C.3       4 UNK         0.0329 
     23 CB         23.2662   28.8249   -3.4443 C.3       4 UNK        -0.2001 
     24 N          23.7331   26.7061   -2.2280 N.am      4 UNK        -0.4303 
     25 C          24.2107   25.8442   -3.1383 C.2       3 UNK         0.5044 
     26 O          24.9354   26.1661   -4.0812 O.2       3 UNK        -0.5152 
     27 CA         23.7796   24.3755   -2.9531 C.3       3 UNK         0.0319 
     28 CB         24.4639   23.4116   -3.9476 C.3       3 UNK        -0.2001 
     29 N          23.9248   23.8980   -1.5693 N.am      3 UNK        -0.4354 
     30 C          25.0669   23.7616   -0.8778 C.2       2 UNK         0.4964 
     31 O          26.1738   24.0757   -1.3180 O.2       2 UNK        -0.5047 
     32 CA         24.9362   23.1485    0.5331 C.3       2 UNK         0.0288 
     33 CB         24.2388   21.7749    0.4899 C.3       2 UNK        -0.2113 
     34 N          26.2370   22.9774    1.1856 N.am      2 UNK        -0.4145 
     35 C          26.9583   23.9587    1.7447 C.2       1 UNK         0.5006 
     36 O          26.5590   25.1195    1.8580 O.2       1 UNK        -0.5103 
     37 C          27.4590   28.8985    0.3834 C.2       5 UNK         0.5055 
     38 O          26.4780   28.7708    1.1220 O.2       5 UNK        -0.5220 
     39 N          28.5328   29.6356    0.6918 N.am      6 UNK        -0.4450 
     40 CA         28.8483   30.0881    2.0468 C.3       6 UNK         0.0367 
     41 CB         29.7909   31.3005    1.9630 C.3       6 UNK        -0.1929 
     42 C          29.5226   28.9390    2.8168 C.2       6 UNK         0.5070 
     43 O          30.1311   28.0677    2.1950 O.2       6 UNK        -0.5237 
     44 N          29.4256   28.9602    4.1507 N.am      7 UNK        -0.4739 
     45 CA         30.1128   28.0034    5.0230 C.3       7 UNK         0.0276 
     46 CB         29.5607   28.1398    6.4511 C.3       7 UNK        -0.1927 
     47 C          31.6317   28.2349    5.0175 C.2       7 UNK         0.5013 
     48 O          32.0645   29.3846    4.9227 O.2       7 UNK        -0.5193 
     49 N          32.4156   27.1635    5.2024 N.am      8 UNK        -0.4253 
     50 CA         33.8856   27.1957    5.2390 C.3       8 UNK         0.0242 
     51 CB         34.4215   25.7724    5.4572 C.3       8 UNK        -0.2000 
     52 C          34.4797   28.1663    6.2808 C.2       8 UNK         0.4948 
     53 O          35.5357   28.7503    6.0347 O.2       8 UNK        -0.5275 
     54 N          33.7643   28.3631    7.3976 N.am      9 UNK        -0.4246 
     55 CA         34.0760   29.3532    8.4311 C.3       9 UNK         0.0261 
     56 CB         33.1980   29.0865    9.6646 C.3       9 UNK        -0.1959 
     57 C          33.9144   30.8136    7.9633 C.2       9 UNK         0.5033 
     58 O          34.5894   31.6877    8.5090 O.2       9 UNK        -0.5390 
     59 N          33.0385   31.0591    6.9775 N.am      10 UNK        -0.4215 
     60 CA         32.8598   32.3613    6.3336 C.3       10 UNK         0.0240 
     61 CB         31.4040   32.5201    5.8633 C.3       10 UNK        -0.1982 
     62 C          33.8406   32.5418    5.1642 C.2       10 UNK         0.4970 
     63 O          34.3005   33.6636    4.9474 O.2       10 UNK        -0.4916 
     64 N          34.1611   31.4505    4.4504 N.am      11 UNK        -0.4279 
     65 CA         35.2175   31.4081    3.4250 C.3       11 UNK         0.1003 
     66 C          36.6222   31.7508    3.9953 C.2       11 UNK         0.5709 
     67 N          37.0195   31.1515    5.1121 N.am      11 UNK        -0.7358 
     68 O          37.3497   32.5583    3.4220 O.2       11 UNK        -0.4999 
     69 C69        35.2871   30.0499    2.6804 C.3       12 UNK        -0.0954 
     70 S70        33.7278   29.5093    1.9127 S.3       12 UNK        -0.2268 
     71 C71        34.3717   28.1036    0.9547 C.3       12 UNK         0.0203 
     72 H72        28.1018   21.4945    6.2871 H         1 UNK         0.0888 
     73 H73        26.6137   20.9331    5.5197 H         1 UNK         0.0888 
     74 H74        28.1807   20.4666    4.8555 H         1 UNK         0.0888 
     75 H75        28.6920   21.6041    3.0309 H         1 UNK         0.3017 
     76 H76        28.8590   23.0975    1.4279 H         1 UNK         0.0873 
     77 H77        28.6933   25.2937    3.5371 H         1 UNK         0.0745 
     78 H78        29.3386   25.4620    1.9308 H         1 UNK         0.0745 
     79 H79        32.7278   23.4153    2.1414 H         1 UNK         0.0705 
     80 H80        31.2362   23.0953    1.3034 H         1 UNK         0.0705 
     81 H81        33.5639   25.8675    2.2790 H         1 UNK         0.1334 
     82 H82        32.7478   28.1844   -1.2311 H         1 UNK         0.1417 
     83 H83        30.5952   24.5402   -0.5097 H         1 UNK         0.1562 
     84 H84        31.2824   26.1617   -3.1228 H         1 UNK         0.0748 
     85 H85        30.7788   27.7223   -2.5222 H         1 UNK         0.0748 
     86 H86        29.2548   27.0597   -0.0694 H         1 UNK         0.0940 
     87 H87        27.8324   26.0877   -0.1937 H         1 UNK         0.0940 
     88 H88        28.0429   28.7542   -1.6788 H         1 UNK         0.0703 
     89 H89        25.9125   26.8246   -1.2884 H         1 UNK         0.3081 
     90 H90        23.3362   28.5078   -1.3336 H         1 UNK         0.0719 
     91 H91        23.8231   28.5982   -4.3538 H         1 UNK         0.0809 
     92 H92        22.2382   28.4921   -3.5874 H         1 UNK         0.0809 
     93 H93        23.2406   29.9107   -3.3444 H         1 UNK         0.0809 
     94 H94        23.1635   26.3255   -1.4846 H         1 UNK         0.2990 
     95 H95        22.7105   24.3513   -3.1699 H         1 UNK         0.0690 
     96 H96        24.1169   22.3875   -3.8106 H         1 UNK         0.0788 
     97 H97        25.5489   23.4161   -3.8383 H         1 UNK         0.0788 
     98 H98        24.2423   23.6929   -4.9779 H         1 UNK         0.0788 
     99 H99        23.0644   23.6184   -1.1181 H         1 UNK         0.2993 
    100 H100       24.3327   23.8301    1.1369 H         1 UNK         0.0949 
    101 H101       23.2156   21.8533    0.1212 H         1 UNK         0.0767 
    102 H102       24.7672   21.0751   -0.1592 H         1 UNK         0.0767 
    103 H103       24.1809   21.3296    1.4836 H         1 UNK         0.0767 
    104 H104       26.6466   22.0569    1.1259 H         1 UNK         0.3013 
    105 H105       29.3109   29.6332    0.0482 H         1 UNK         0.3121 
    106 H106       27.9313   30.3817    2.5625 H         1 UNK         0.0774 
    107 H107       30.7457   31.0386    1.5042 H         1 UNK         0.0815 
    108 H108       30.0079   31.6945    2.9559 H         1 UNK         0.0815 
    109 H109       29.3482   32.1103    1.3831 H         1 UNK         0.0815 
    110 H110       28.9456   29.7259    4.6001 H         1 UNK         0.2987 
    111 H111       29.9109   26.9949    4.6585 H         1 UNK         0.0949 
    112 H112       29.7438   29.1337    6.8624 H         1 UNK         0.0806 
    113 H113       28.4863   27.9571    6.4795 H         1 UNK         0.0806 
    114 H114       30.0265   27.4176    7.1228 H         1 UNK         0.0806 
    115 H115       31.9829   26.2527    5.2683 H         1 UNK         0.3010 
    116 H116       34.2185   27.5351    4.2570 H         1 UNK         0.0829 
    117 H117       35.5124   25.7614    5.4496 H         1 UNK         0.0813 
    118 H118       34.0975   25.3610    6.4140 H         1 UNK         0.0813 
    119 H119       34.0871   25.0957    4.6704 H         1 UNK         0.0813 
    120 H120       32.9149   27.8310    7.5173 H         1 UNK         0.3038 
    121 H121       35.1208   29.2174    8.7187 H         1 UNK         0.0769 
    122 H122       32.1364   29.1883    9.4355 H         1 UNK         0.0811 
    123 H123       33.4269   29.7911   10.4655 H         1 UNK         0.0811 
    124 H124       33.3631   28.0845   10.0613 H         1 UNK         0.0811 
    125 H125       32.5749   30.2789    6.5206 H         1 UNK         0.3204 
    126 H126       33.0600   33.1515    7.0605 H         1 UNK         0.0748 
    127 H127       31.2430   33.5070    5.4274 H         1 UNK         0.0771 
    128 H128       31.1361   31.7847    5.1056 H         1 UNK         0.0771 
    129 H129       30.7060   32.4145    6.6939 H         1 UNK         0.0771 
    130 H130       33.6718   30.5814    4.6321 H         1 UNK         0.2980 
    131 H131       34.9715   32.1748    2.6879 H         1 UNK         0.0545 
    132 H132       36.4462   30.4287    5.5368 H         1 UNK         0.3459 
    133 H133       37.9262   31.3656    5.4944 H         1 UNK         0.3459 
    134 H134       36.0408   30.1029    1.8921 H         1 UNK         0.0616 
    135 H135       35.6157   29.2613    3.3585 H         1 UNK         0.0616 
    136 H136       34.8799   28.4800    0.0657 H         1 UNK         0.0634 
    137 H137       35.1294   27.5809    1.5409 H         1 UNK         0.0634 
@<TRIPOS>BOND
     1    1    2 1    
     2    1   72 1    
     3    1   73 1    
     4    1   74 1    
     5    2    3 2    
     6    2    4 am   BACKBONE|DICT|INTERRES
     7    4    5 1    
     8    4   75 1    
     9    5    6 1    
    10    5   35 1    
    11    5   76 1    
    12    6    7 1    
    13    6   77 1    
    14    6   78 1    
    15    7    8 1    
    16    8    9 1    
    17    8   79 1    
    18    8   80 1    
    19    9   10 ar   
    20    9   14 ar   
    21   10   11 ar   
    22   10   81 1    
    23   11   12 ar   
    24   11   71 1    
    25   12   13 ar   
    26   12   82 1    
    27   13   14 ar   
    28   13   15 1    
    29   14   83 1    
    30   15   16 1    
    31   15   84 1    
    32   15   85 1    
    33   16   17 1    
    34   17   18 1    
    35   17   86 1    
    36   17   87 1    
    37   18   19 1    
    38   18   37 1    
    39   18   88 1    
    40   19   20 am   BACKBONE|DICT|INTERRES
    41   19   89 1    
    42   20   21 2    
    43   20   22 1    
    44   22   23 1    
    45   22   24 1    
    46   22   90 1    
    47   23   91 1    
    48   23   92 1    
    49   23   93 1    
    50   24   25 am   BACKBONE|DICT|INTERRES
    51   24   94 1    
    52   25   26 2    
    53   25   27 1    
    54   27   28 1    
    55   27   29 1    
    56   27   95 1    
    57   28   96 1    
    58   28   97 1    
    59   28   98 1    
    60   29   30 am   BACKBONE|DICT|INTERRES
    61   29   99 1    
    62   30   31 2    
    63   30   32 1    
    64   32   33 1    
    65   32   34 1    
    66   32  100 1    
    67   33  101 1    
    68   33  102 1    
    69   33  103 1    
    70   34   35 am   BACKBONE|DICT|INTERRES
    71   34  104 1    
    72   35   36 2    
    73   37   38 2    
    74   37   39 am   BACKBONE|DICT|INTERRES
    75   39   40 1    
    76   39  105 1    
    77   40   41 1    
    78   40   42 1    
    79   40  106 1    
    80   41  107 1    
    81   41  108 1    
    82   41  109 1    
    83   42   43 2    
    84   42   44 am   BACKBONE|DICT|INTERRES
    85   44   45 1    
    86   44  110 1    
    87   45   46 1    
    88   45   47 1    
    89   45  111 1    
    90   46  112 1    
    91   46  113 1    
    92   46  114 1    
    93   47   48 2    
    94   47   49 am   BACKBONE|DICT|INTERRES
    95   49   50 1    
    96   49  115 1    
    97   50   51 1    
    98   50   52 1    
    99   50  116 1    
   100   51  117 1    
   101   51  118 1    
   102   51  119 1    
   103   52   53 2    
   104   52   54 am   BACKBONE|DICT|INTERRES
   105   54   55 1    
   106   54  120 1    
   107   55   56 1    
   108   55   57 1    
   109   55  121 1    
   110   56  122 1    
   111   56  123 1    
   112   56  124 1    
   113   57   58 2    
   114   57   59 am   BACKBONE|DICT|INTERRES
   115   59   60 1    
   116   59  125 1    
   117   60   61 1    
   118   60   62 1    
   119   60  126 1    
   120   61  127 1    
   121   61  128 1    
   122   61  129 1    
   123   62   63 2    
   124   62   64 am   BACKBONE|DICT|INTERRES
   125   64   65 1    
   126   64  130 1    
   127   65   66 1    
   128   65   69 1    
   129   65  131 1    
   130   66   67 am   BACKBONE|DICT|INTERRES
   131   66   68 2    
   132   67  132 1    
   133   67  133 1    
   134   69   70 1    
   135   69  134 1    
   136   69  135 1    
   137   70   71 1    
   138   71  136 1    
   139   71  137 1    
@<TRIPOS>SUBSTRUCTURE
     1 UNK         1 GROUP             0       ****    0 ROOT    
