@<TRIPOS>MOLECULE
3R136
137   139    1
SMALL
USER_CHARGES


@<TRIPOS>ATOM
      1 CA         26.5925   19.3123    3.8386 C.3       0 UNK        -0.1979 
      2 C          26.7854   20.1940    2.6135 C.2       0 UNK         0.4864 
      3 O          26.1153   19.9880    1.5999 O.2       0 UNK        -0.5359 
      4 N          27.7017   21.1672    2.6959 N.am      1 UNK        -0.4318 
      5 CA         27.9931   22.1392    1.6362 C.3       1 UNK         0.0824 
      6 C6         29.3172   22.9005    1.8977 C.3       12 UNK        -0.0944 
      7 S7         30.7473   21.7809    2.0456 S.3       12 UNK        -0.2672 
      8 C8         31.9676   22.8619    2.8732 C.3       12 UNK         0.0333 
      9 C9         32.5970   23.9500    1.9987 C.ar      12 UNK        -0.0807 
     10 C10        33.2572   25.0118    2.6260 C.ar      12 UNK        -0.0894 
     11 C11        33.9053   26.0058    1.8807 C.ar      12 UNK        -0.0804 
     12 C12        33.8505   25.9504    0.4841 C.ar      12 UNK        -0.0824 
     13 C13        33.1882   24.9021   -0.1616 C.ar      12 UNK        -0.0762 
     14 C14        32.5786   23.9007    0.5992 C.ar      12 UNK        -0.0782 
     15 C15        33.1662   24.8168   -1.6815 C.3       12 UNK         0.0230 
     16 S16        31.4793   24.9314   -2.3606 S.3       12 UNK        -0.2608 
     17 C17        31.1671   26.7282   -2.3201 C.3       12 UNK        -0.0989 
     18 CA         29.7784   27.0607   -1.7082 C.3       5 UNK         0.0716 
     19 N          29.6597   26.6968   -0.2897 N.am      5 UNK        -0.4135 
     20 C          30.3177   27.2559    0.7366 C.2       4 UNK         0.5031 
     21 O          31.1440   28.1589    0.6126 O.2       4 UNK        -0.5229 
     22 CA         29.9431   26.7366    2.1385 C.3       4 UNK         0.0329 
     23 CB         30.6728   27.4789    3.2730 C.3       4 UNK        -0.2001 
     24 N          28.4916   26.7391    2.3596 N.am      4 UNK        -0.4303 
     25 C          27.6720   27.8023    2.3418 C.2       3 UNK         0.5044 
     26 O          28.0556   28.9710    2.2563 O.2       3 UNK        -0.5152 
     27 CA         26.1628   27.4939    2.4166 C.3       3 UNK         0.0319 
     28 CB         25.2895   28.6844    1.9688 C.3       3 UNK        -0.2001 
     29 N          25.7886   26.2748    1.6841 N.am      3 UNK        -0.4354 
     30 C          26.0003   26.0101    0.3862 C.2       2 UNK         0.4964 
     31 O          26.5624   26.7845   -0.3902 O.2       2 UNK        -0.5047 
     32 CA         25.5862   24.6097   -0.1010 C.3       2 UNK         0.0288 
     33 CB         25.3538   24.5750   -1.6231 C.3       2 UNK        -0.2113 
     34 N          26.5988   23.6077    0.2456 N.am      2 UNK        -0.4145 
     35 C          26.8307   23.1404    1.4803 C.2       1 UNK         0.5006 
     36 O          26.2009   23.5065    2.4772 O.2       1 UNK        -0.5103 
     37 C          29.3397   28.5225   -1.9499 C.2       5 UNK         0.5055 
     38 O          30.0500   29.2869   -2.6062 O.2       5 UNK        -0.5220 
     39 N          28.1711   28.8767   -1.3924 N.am      6 UNK        -0.4450 
     40 CA         27.5149   30.1898   -1.4344 C.3       6 UNK         0.0367 
     41 CB         27.0823   30.5381   -2.8744 C.3       6 UNK        -0.1929 
     42 C          28.3113   31.3320   -0.7675 C.2       6 UNK         0.5070 
     43 O          28.0203   32.5005   -1.0267 O.2       6 UNK        -0.5237 
     44 N          29.2785   30.9959    0.0973 N.am      7 UNK        -0.4739 
     45 CA         30.1086   31.9566    0.8316 C.3       7 UNK         0.0276 
     46 CB         31.4798   31.3225    1.1054 C.3       7 UNK        -0.1927 
     47 C          29.4600   32.4459    2.1405 C.2       7 UNK         0.5013 
     48 O          30.0476   33.2949    2.8108 O.2       7 UNK        -0.5193 
     49 N          28.2817   31.9022    2.4793 N.am      8 UNK        -0.4253 
     50 CA         27.4812   32.1531    3.6816 C.3       8 UNK         0.0242 
     51 CB         27.0798   33.6394    3.8071 C.3       8 UNK        -0.2000 
     52 C          28.1577   31.5861    4.9409 C.2       8 UNK         0.4948 
     53 O          28.3563   32.3085    5.9192 O.2       8 UNK        -0.5275 
     54 N          28.4824   30.2854    4.8794 N.am      9 UNK        -0.4246 
     55 CA         29.0596   29.4649    5.9546 C.3       9 UNK         0.0261 
     56 CB         28.0878   29.3519    7.1497 C.3       9 UNK        -0.1959 
     57 C          30.4814   29.8997    6.3685 C.2       9 UNK         0.5033 
     58 O          30.8254   29.8445    7.5515 O.2       9 UNK        -0.5390 
     59 N          31.2835   30.3181    5.3813 N.am      10 UNK        -0.4215 
     60 CA         32.6980   30.6646    5.5321 C.3       10 UNK         0.0240 
     61 CB         33.1115   31.5517    4.3441 C.3       10 UNK        -0.1982 
     62 C          33.6019   29.4178    5.6198 C.2       10 UNK         0.4970 
     63 O          33.1301   28.2919    5.4524 O.2       10 UNK        -0.4916 
     64 N          34.8964   29.6736    5.8457 N.am      11 UNK        -0.4279 
     65 CA         36.0020   28.7070    5.9414 C.3       11 UNK         0.1003 
     66 C          35.8837   27.6869    7.1168 C.2       11 UNK         0.5709 
     67 N          36.7269   26.6634    7.1550 N.am      11 UNK        -0.7358 
     68 O          35.0864   27.8516    8.0389 O.2       11 UNK        -0.4999 
     69 C69        36.4422   28.1402    4.5500 C.3       12 UNK        -0.0954 
     70 S70        35.6606   26.5874    3.9829 S.3       12 UNK        -0.2268 
     71 C71        34.6564   27.1482    2.5665 C.3       12 UNK         0.0203 
     72 H72        25.5666   19.3890    4.1978 H         1 UNK         0.0888 
     73 H73        26.7891   18.2706    3.5861 H         1 UNK         0.0888 
     74 H74        27.2590   19.5950    4.6533 H         1 UNK         0.0888 
     75 H75        28.2178   21.2934    3.5544 H         1 UNK         0.3017 
     76 H76        28.0937   21.5861    0.6994 H         1 UNK         0.0873 
     77 H77        29.5269   23.5982    1.0847 H         1 UNK         0.0745 
     78 H78        29.2413   23.4947    2.8107 H         1 UNK         0.0745 
     79 H79        31.4978   23.3154    3.7474 H         1 UNK         0.0705 
     80 H80        32.7719   22.2304    3.2527 H         1 UNK         0.0705 
     81 H81        33.2823   25.0567    3.7064 H         1 UNK         0.1334 
     82 H82        34.3326   26.7209   -0.1019 H         1 UNK         0.1417 
     83 H83        32.0944   23.0832    0.0843 H         1 UNK         0.1562 
     84 H84        33.5971   23.8610   -1.9827 H         1 UNK         0.0748 
     85 H85        33.7943   25.5871   -2.1319 H         1 UNK         0.0748 
     86 H86        31.2302   27.0829   -3.3505 H         1 UNK         0.0940 
     87 H87        31.9615   27.2414   -1.7755 H         1 UNK         0.0940 
     88 H88        29.0380   26.4551   -2.2340 H         1 UNK         0.0703 
     89 H89        28.9546   26.0060   -0.0849 H         1 UNK         0.3081 
     90 H90        30.2688   25.6975    2.1728 H         1 UNK         0.0719 
     91 H91        31.7505   27.4226    3.1420 H         1 UNK         0.0809 
     92 H92        30.4139   28.5355    3.3000 H         1 UNK         0.0809 
     93 H93        30.4513   27.0376    4.2436 H         1 UNK         0.0809 
     94 H94        28.0590   25.8334    2.4693 H         1 UNK         0.2990 
     95 H95        25.9467   27.3023    3.4686 H         1 UNK         0.0690 
     96 H96        24.2287   28.4536    2.0646 H         1 UNK         0.0788 
     97 H97        25.4783   28.9569    0.9309 H         1 UNK         0.0788 
     98 H98        25.4821   29.5668    2.5793 H         1 UNK         0.0788 
     99 H99        25.4116   25.5219    2.2497 H         1 UNK         0.2993 
    100 H100       24.6454   24.3463    0.3881 H         1 UNK         0.0949 
    101 H101       24.6119   25.3176   -1.9206 H         1 UNK         0.0767 
    102 H102       26.2673   24.7868   -2.1806 H         1 UNK         0.0767 
    103 H103       24.9829   23.6017   -1.9451 H         1 UNK         0.0767 
    104 H104       27.1656   23.2671   -0.5180 H         1 UNK         0.3013 
    105 H105       27.6456   28.1494   -0.9068 H         1 UNK         0.3121 
    106 H106       26.6064   30.0830   -0.8414 H         1 UNK         0.0774 
    107 H107       27.9403   30.7297   -3.5194 H         1 UNK         0.0815 
    108 H108       26.4581   31.4323   -2.8920 H         1 UNK         0.0815 
    109 H109       26.5000   29.7316   -3.3196 H         1 UNK         0.0815 
    110 H110       29.4573   30.0148    0.2726 H         1 UNK         0.2987 
    111 H111       30.2683   32.8369    0.2050 H         1 UNK         0.0949 
    112 H112       31.4062   30.4998    1.8168 H         1 UNK         0.0806 
    113 H113       31.9298   30.9343    0.1913 H         1 UNK         0.0806 
    114 H114       32.1710   32.0583    1.5174 H         1 UNK         0.0806 
    115 H115       27.9576   31.1413    1.8941 H         1 UNK         0.3010 
    116 H116       26.5589   31.5850    3.5532 H         1 UNK         0.0829 
    117 H117       26.3758   33.7814    4.6279 H         1 UNK         0.0813 
    118 H118       27.9378   34.2818    4.0066 H         1 UNK         0.0813 
    119 H119       26.5956   33.9977    2.8988 H         1 UNK         0.0813 
    120 H120       28.3101   29.8054    3.9994 H         1 UNK         0.3038 
    121 H121       29.1621   28.4616    5.5431 H         1 UNK         0.0769 
    122 H122       27.9732   30.3023    7.6717 H         1 UNK         0.0811 
    123 H123       28.4486   28.6251    7.8786 H         1 UNK         0.0811 
    124 H124       27.0995   29.0229    6.8289 H         1 UNK         0.0811 
    125 H125       30.9164   30.3250    4.4429 H         1 UNK         0.3204 
    126 H126       32.8146   31.2379    6.4544 H         1 UNK         0.0748 
    127 H127       34.0879   32.0077    4.5103 H         1 UNK         0.0771 
    128 H128       33.1798   30.9746    3.4217 H         1 UNK         0.0771 
    129 H129       32.4040   32.3663    4.1847 H         1 UNK         0.0771 
    130 H130       35.1657   30.6342    5.9983 H         1 UNK         0.2980 
    131 H131       36.8285   29.3407    6.2653 H         1 UNK         0.0545 
    132 H132       36.6772   26.0142    7.9241 H         1 UNK         0.3459 
    133 H133       37.3823   26.5079    6.4054 H         1 UNK         0.3459 
    134 H134       36.3227   28.9049    3.7810 H         1 UNK         0.0616 
    135 H135       37.5149   27.9431    4.5792 H         1 UNK         0.0616 
    136 H136       33.9467   27.9044    2.8989 H         1 UNK         0.0634 
    137 H137       35.3201   27.6410    1.8545 H         1 UNK         0.0634 
@<TRIPOS>BOND
     1    1    2 1    
     2    1   72 1    
     3    1   73 1    
     4    1   74 1    
     5    2    3 2    
     6    2    4 am   BACKBONE|DICT|INTERRES
     7    4    5 1    
     8    4   75 1    
     9    5    6 1    
    10    5   35 1    
    11    5   76 1    
    12    6    7 1    
    13    6   77 1    
    14    6   78 1    
    15    7    8 1    
    16    8    9 1    
    17    8   79 1    
    18    8   80 1    
    19    9   10 ar   
    20    9   14 ar   
    21   10   11 ar   
    22   10   81 1    
    23   11   12 ar   
    24   11   71 1    
    25   12   13 ar   
    26   12   82 1    
    27   13   14 ar   
    28   13   15 1    
    29   14   83 1    
    30   15   16 1    
    31   15   84 1    
    32   15   85 1    
    33   16   17 1    
    34   17   18 1    
    35   17   86 1    
    36   17   87 1    
    37   18   19 1    
    38   18   37 1    
    39   18   88 1    
    40   19   20 am   BACKBONE|DICT|INTERRES
    41   19   89 1    
    42   20   21 2    
    43   20   22 1    
    44   22   23 1    
    45   22   24 1    
    46   22   90 1    
    47   23   91 1    
    48   23   92 1    
    49   23   93 1    
    50   24   25 am   BACKBONE|DICT|INTERRES
    51   24   94 1    
    52   25   26 2    
    53   25   27 1    
    54   27   28 1    
    55   27   29 1    
    56   27   95 1    
    57   28   96 1    
    58   28   97 1    
    59   28   98 1    
    60   29   30 am   BACKBONE|DICT|INTERRES
    61   29   99 1    
    62   30   31 2    
    63   30   32 1    
    64   32   33 1    
    65   32   34 1    
    66   32  100 1    
    67   33  101 1    
    68   33  102 1    
    69   33  103 1    
    70   34   35 am   BACKBONE|DICT|INTERRES
    71   34  104 1    
    72   35   36 2    
    73   37   38 2    
    74   37   39 am   BACKBONE|DICT|INTERRES
    75   39   40 1    
    76   39  105 1    
    77   40   41 1    
    78   40   42 1    
    79   40  106 1    
    80   41  107 1    
    81   41  108 1    
    82   41  109 1    
    83   42   43 2    
    84   42   44 am   BACKBONE|DICT|INTERRES
    85   44   45 1    
    86   44  110 1    
    87   45   46 1    
    88   45   47 1    
    89   45  111 1    
    90   46  112 1    
    91   46  113 1    
    92   46  114 1    
    93   47   48 2    
    94   47   49 am   BACKBONE|DICT|INTERRES
    95   49   50 1    
    96   49  115 1    
    97   50   51 1    
    98   50   52 1    
    99   50  116 1    
   100   51  117 1    
   101   51  118 1    
   102   51  119 1    
   103   52   53 2    
   104   52   54 am   BACKBONE|DICT|INTERRES
   105   54   55 1    
   106   54  120 1    
   107   55   56 1    
   108   55   57 1    
   109   55  121 1    
   110   56  122 1    
   111   56  123 1    
   112   56  124 1    
   113   57   58 2    
   114   57   59 am   BACKBONE|DICT|INTERRES
   115   59   60 1    
   116   59  125 1    
   117   60   61 1    
   118   60   62 1    
   119   60  126 1    
   120   61  127 1    
   121   61  128 1    
   122   61  129 1    
   123   62   63 2    
   124   62   64 am   BACKBONE|DICT|INTERRES
   125   64   65 1    
   126   64  130 1    
   127   65   66 1    
   128   65   69 1    
   129   65  131 1    
   130   66   67 am   BACKBONE|DICT|INTERRES
   131   66   68 2    
   132   67  132 1    
   133   67  133 1    
   134   69   70 1    
   135   69  134 1    
   136   69  135 1    
   137   70   71 1    
   138   71  136 1    
   139   71  137 1    
@<TRIPOS>SUBSTRUCTURE
     1 UNK         1 GROUP             0       ****    0 ROOT    
