@<TRIPOS>MOLECULE
3R136
137   139    1
SMALL
USER_CHARGES


@<TRIPOS>ATOM
      1 CA         26.7939   24.1144   -1.5660 C.3       0 UNK        -0.1979 
      2 C          27.7099   23.1552   -0.8203 C.2       0 UNK         0.4864 
      3 O          27.6405   21.9471   -1.0455 O.2       0 UNK        -0.5359 
      4 N          28.5433   23.6920    0.0810 N.am      1 UNK        -0.4318 
      5 CA         29.5289   22.9987    0.9273 C.3       1 UNK         0.0824 
      6 C6         30.5421   22.0968    0.1595 C.3       12 UNK        -0.0944 
      7 S7         31.3964   22.9290   -1.2251 S.3       12 UNK        -0.2672 
      8 C8         32.9752   23.4177   -0.4583 C.3       12 UNK         0.0333 
      9 C9         32.7671   24.5604    0.5209 C.ar      12 UNK        -0.0807 
     10 C10        32.7377   24.3207    1.8964 C.ar      12 UNK        -0.0894 
     11 C11        32.4629   25.3616    2.7859 C.ar      12 UNK        -0.0804 
     12 C12        32.2240   26.6488    2.2934 C.ar      12 UNK        -0.0824 
     13 C13        32.2658   26.9064    0.9194 C.ar      12 UNK        -0.0762 
     14 C14        32.5607   25.8560    0.0414 C.ar      12 UNK        -0.0782 
     15 C15        31.9967   28.3280    0.4262 C.3       12 UNK         0.0230 
     16 S16        31.3680   28.4671   -1.2839 S.3       12 UNK        -0.2608 
     17 C17        29.8071   27.5133   -1.2381 C.3       12 UNK        -0.0989 
     18 CA         28.5635   28.2621   -0.6768 C.3       5 UNK         0.0716 
     19 N          28.5646   28.3484    0.7816 N.am      5 UNK        -0.4135 
     20 C          28.2279   27.3491    1.6000 C.2       4 UNK         0.5031 
     21 O          27.9374   26.2144    1.2039 O.2       4 UNK        -0.5229 
     22 CA         28.1902   27.6556    3.1055 C.3       4 UNK         0.0329 
     23 CB         27.4771   28.9859    3.4299 C.3       4 UNK        -0.2001 
     24 N          27.5141   26.5428    3.7652 N.am      4 UNK        -0.4303 
     25 C          27.5693   26.2270    5.0639 C.2       3 UNK         0.5044 
     26 O          28.1660   26.8932    5.9090 O.2       3 UNK        -0.5152 
     27 CA         26.8647   24.9347    5.4956 C.3       3 UNK         0.0319 
     28 CB         25.4009   25.2224    5.8811 C.3       3 UNK        -0.2001 
     29 N          26.9398   23.9126    4.4484 N.am      3 UNK        -0.4354 
     30 C          26.7212   22.6030    4.6194 C.2       2 UNK         0.4964 
     31 O          26.4370   22.0910    5.7029 O.2       2 UNK        -0.5047 
     32 CA         26.8104   21.7074    3.3706 C.3       2 UNK         0.0288 
     33 CB         25.4001   21.3600    2.8644 C.3       2 UNK        -0.2113 
     34 N          27.5640   22.3244    2.2752 N.am      2 UNK        -0.4145 
     35 C          28.8940   22.2482    2.1220 C.2       1 UNK         0.5006 
     36 O          29.6220   21.6247    2.8962 O.2       1 UNK        -0.5103 
     37 C          28.2872   29.6606   -1.2653 C.2       5 UNK         0.5055 
     38 O          27.7826   30.5320   -0.5520 O.2       5 UNK        -0.5220 
     39 N          28.6007   29.8512   -2.5547 N.am      6 UNK        -0.4450 
     40 CA         28.4877   31.1329   -3.2576 C.3       6 UNK         0.0367 
     41 CB         28.5920   30.8896   -4.7721 C.3       6 UNK        -0.1929 
     42 C          29.5326   32.1725   -2.8073 C.2       6 UNK         0.5070 
     43 O          29.2760   33.3710   -2.9299 O.2       6 UNK        -0.5237 
     44 N          30.6849   31.7087   -2.3039 N.am      7 UNK        -0.4739 
     45 CA         31.7201   32.5487   -1.6997 C.3       7 UNK         0.0276 
     46 CB         33.0652   31.8047   -1.7425 C.3       7 UNK        -0.1927 
     47 C          31.3507   32.9076   -0.2517 C.2       7 UNK         0.5013 
     48 O          30.6021   32.1723    0.3970 O.2       7 UNK        -0.5193 
     49 N          31.9128   34.0158    0.2455 N.am      8 UNK        -0.4253 
     50 CA         31.7037   34.5334    1.6004 C.3       8 UNK         0.0242 
     51 CB         32.0478   36.0353    1.6163 C.3       8 UNK        -0.2000 
     52 C          32.4892   33.7338    2.6602 C.2       8 UNK         0.4948 
     53 O          33.3877   34.2791    3.3047 O.2       8 UNK        -0.5275 
     54 N          32.1396   32.4544    2.8188 N.am      9 UNK        -0.4246 
     55 CA         32.6717   31.5415    3.8238 C.3       9 UNK         0.0261 
     56 CB         33.8758   30.7742    3.2511 C.3       9 UNK        -0.1959 
     57 C          31.5551   30.5814    4.2428 C.2       9 UNK         0.5033 
     58 O          30.7341   30.2021    3.4039 O.2       9 UNK        -0.5390 
     59 N          31.5626   30.1948    5.5213 N.am      10 UNK        -0.4215 
     60 CA         30.6348   29.2382    6.1192 C.3       10 UNK         0.0240 
     61 CB         29.7838   29.9498    7.1839 C.3       10 UNK        -0.1982 
     62 C          31.4355   28.0894    6.7403 C.2       10 UNK         0.4970 
     63 O          32.5862   28.2880    7.1389 O.2       10 UNK        -0.4916 
     64 N          30.8076   26.9141    6.8104 N.am      11 UNK        -0.4279 
     65 CA         31.4107   25.6648    7.2999 C.3       11 UNK         0.1003 
     66 C          31.3572   25.4902    8.8448 C.2       11 UNK         0.5709 
     67 N          30.7002   26.3685    9.5934 N.am      11 UNK        -0.7358 
     68 O          31.9345   24.5447    9.3765 O.2       11 UNK        -0.4999 
     69 C69        30.8334   24.4198    6.5687 C.3       12 UNK        -0.0954 
     70 S70        30.7266   24.5554    4.7485 S.3       12 UNK        -0.2268 
     71 C71        32.3987   25.0889    4.2774 C.3       12 UNK         0.0203 
     72 H72        27.0039   24.0773   -2.6345 H         1 UNK         0.0888 
     73 H73        25.7516   23.8361   -1.4125 H         1 UNK         0.0888 
     74 H74        26.9223   25.1436   -1.2307 H         1 UNK         0.0888 
     75 H75        28.4621   24.6882    0.2784 H         1 UNK         0.3017 
     76 H76        30.0975   23.8063    1.3877 H         1 UNK         0.0873 
     77 H77        30.0373   21.2178   -0.2437 H         1 UNK         0.0745 
     78 H78        31.2982   21.7077    0.8436 H         1 UNK         0.0745 
     79 H79        33.4344   22.5571    0.0306 H         1 UNK         0.0705 
     80 H80        33.6676   23.7308   -1.2412 H         1 UNK         0.0705 
     81 H81        32.8939   23.3194    2.2745 H         1 UNK         0.1334 
     82 H82        31.9976   27.4517    2.9827 H         1 UNK         0.1417 
     83 H83        32.5962   26.0292   -1.0249 H         1 UNK         0.1562 
     84 H84        32.9296   28.8882    0.4861 H         1 UNK         0.0748 
     85 H85        31.2953   28.8316    1.0924 H         1 UNK         0.0748 
     86 H86        29.6019   27.1856   -2.2583 H         1 UNK         0.0940 
     87 H87        29.9655   26.5864   -0.6860 H         1 UNK         0.0940 
     88 H88        27.6854   27.6764   -0.9578 H         1 UNK         0.0703 
     89 H89        28.7351   29.2753    1.1512 H         1 UNK         0.3081 
     90 H90        29.2243   27.6955    3.4523 H         1 UNK         0.0719 
     91 H91        26.4584   29.0011    3.0409 H         1 UNK         0.0809 
     92 H92        27.4258   29.1591    4.5048 H         1 UNK         0.0809 
     93 H93        28.0071   29.8386    3.0043 H         1 UNK         0.0809 
     94 H94        27.0056   25.9565    3.1178 H         1 UNK         0.2990 
     95 H95        27.3917   24.5609    6.3759 H         1 UNK         0.0690 
     96 H96        24.9167   24.3420    6.3035 H         1 UNK         0.0788 
     97 H97        24.8144   25.5468    5.0208 H         1 UNK         0.0788 
     98 H98        25.3435   26.0109    6.6329 H         1 UNK         0.0788 
     99 H99        27.2531   24.2202    3.5406 H         1 UNK         0.2993 
    100 H100       27.3030   20.7790    3.6689 H         1 UNK         0.0949 
    101 H101       24.8164   20.8662    3.6428 H         1 UNK         0.0767 
    102 H102       24.8484   22.2500    2.5585 H         1 UNK         0.0767 
    103 H103       25.4413   20.6806    2.0126 H         1 UNK         0.0767 
    104 H104       27.0349   22.8241    1.5755 H         1 UNK         0.3013 
    105 H105       29.0137   29.0882   -3.0714 H         1 UNK         0.3121 
    106 H106       27.5005   31.5502   -3.0468 H         1 UNK         0.0774 
    107 H107       29.5563   30.4606   -5.0475 H         1 UNK         0.0815 
    108 H108       28.4821   31.8238   -5.3247 H         1 UNK         0.0815 
    109 H109       27.8101   30.2152   -5.1217 H         1 UNK         0.0815 
    110 H110       30.7880   30.7108   -2.1792 H         1 UNK         0.2987 
    111 H111       31.8110   33.4701   -2.2798 H         1 UNK         0.0949 
    112 H112       33.0572   30.9155   -1.1122 H         1 UNK         0.0806 
    113 H113       33.3178   31.4953   -2.7569 H         1 UNK         0.0806 
    114 H114       33.8762   32.4423   -1.3883 H         1 UNK         0.0806 
    115 H115       32.5511   34.5387   -0.3371 H         1 UNK         0.3010 
    116 H116       30.6441   34.4374    1.8487 H         1 UNK         0.0829 
    117 H117       31.4297   36.5919    0.9116 H         1 UNK         0.0813 
    118 H118       31.8751   36.4650    2.6040 H         1 UNK         0.0813 
    119 H119       33.0931   36.2145    1.3611 H         1 UNK         0.0813 
    120 H120       31.3932   32.0740    2.2393 H         1 UNK         0.3038 
    121 H121       32.9886   32.1106    4.7007 H         1 UNK         0.0769 
    122 H122       33.6014   30.2016    2.3655 H         1 UNK         0.0811 
    123 H123       34.2790   30.0731    3.9829 H         1 UNK         0.0811 
    124 H124       34.6819   31.4535    2.9732 H         1 UNK         0.0811 
    125 H125       32.3271   30.4801    6.1190 H         1 UNK         0.3204 
    126 H126       29.9713   28.8247    5.3588 H         1 UNK         0.0748 
    127 H127       29.0599   29.2639    7.6263 H         1 UNK         0.0771 
    128 H128       30.3963   30.3506    7.9926 H         1 UNK         0.0771 
    129 H129       29.2200   30.7753    6.7489 H         1 UNK         0.0771 
    130 H130       29.8430   26.8501    6.4858 H         1 UNK         0.2980 
    131 H131       32.4769   25.6997    7.0717 H         1 UNK         0.0545 
    132 H132       30.6779   26.2472   10.5936 H         1 UNK         0.3459 
    133 H133       30.2246   27.1463    9.1660 H         1 UNK         0.3459 
    134 H134       31.4295   23.5358    6.8018 H         1 UNK         0.0616 
    135 H135       29.8260   24.2083    6.9311 H         1 UNK         0.0616 
    136 H136       32.6770   25.9931    4.8180 H         1 UNK         0.0634 
    137 H137       33.1195   24.3194    4.5576 H         1 UNK         0.0634 
@<TRIPOS>BOND
     1    1    2 1    
     2    1   72 1    
     3    1   73 1    
     4    1   74 1    
     5    2    3 2    
     6    2    4 am   BACKBONE|DICT|INTERRES
     7    4    5 1    
     8    4   75 1    
     9    5    6 1    
    10    5   35 1    
    11    5   76 1    
    12    6    7 1    
    13    6   77 1    
    14    6   78 1    
    15    7    8 1    
    16    8    9 1    
    17    8   79 1    
    18    8   80 1    
    19    9   10 ar   
    20    9   14 ar   
    21   10   11 ar   
    22   10   81 1    
    23   11   12 ar   
    24   11   71 1    
    25   12   13 ar   
    26   12   82 1    
    27   13   14 ar   
    28   13   15 1    
    29   14   83 1    
    30   15   16 1    
    31   15   84 1    
    32   15   85 1    
    33   16   17 1    
    34   17   18 1    
    35   17   86 1    
    36   17   87 1    
    37   18   19 1    
    38   18   37 1    
    39   18   88 1    
    40   19   20 am   BACKBONE|DICT|INTERRES
    41   19   89 1    
    42   20   21 2    
    43   20   22 1    
    44   22   23 1    
    45   22   24 1    
    46   22   90 1    
    47   23   91 1    
    48   23   92 1    
    49   23   93 1    
    50   24   25 am   BACKBONE|DICT|INTERRES
    51   24   94 1    
    52   25   26 2    
    53   25   27 1    
    54   27   28 1    
    55   27   29 1    
    56   27   95 1    
    57   28   96 1    
    58   28   97 1    
    59   28   98 1    
    60   29   30 am   BACKBONE|DICT|INTERRES
    61   29   99 1    
    62   30   31 2    
    63   30   32 1    
    64   32   33 1    
    65   32   34 1    
    66   32  100 1    
    67   33  101 1    
    68   33  102 1    
    69   33  103 1    
    70   34   35 am   BACKBONE|DICT|INTERRES
    71   34  104 1    
    72   35   36 2    
    73   37   38 2    
    74   37   39 am   BACKBONE|DICT|INTERRES
    75   39   40 1    
    76   39  105 1    
    77   40   41 1    
    78   40   42 1    
    79   40  106 1    
    80   41  107 1    
    81   41  108 1    
    82   41  109 1    
    83   42   43 2    
    84   42   44 am   BACKBONE|DICT|INTERRES
    85   44   45 1    
    86   44  110 1    
    87   45   46 1    
    88   45   47 1    
    89   45  111 1    
    90   46  112 1    
    91   46  113 1    
    92   46  114 1    
    93   47   48 2    
    94   47   49 am   BACKBONE|DICT|INTERRES
    95   49   50 1    
    96   49  115 1    
    97   50   51 1    
    98   50   52 1    
    99   50  116 1    
   100   51  117 1    
   101   51  118 1    
   102   51  119 1    
   103   52   53 2    
   104   52   54 am   BACKBONE|DICT|INTERRES
   105   54   55 1    
   106   54  120 1    
   107   55   56 1    
   108   55   57 1    
   109   55  121 1    
   110   56  122 1    
   111   56  123 1    
   112   56  124 1    
   113   57   58 2    
   114   57   59 am   BACKBONE|DICT|INTERRES
   115   59   60 1    
   116   59  125 1    
   117   60   61 1    
   118   60   62 1    
   119   60  126 1    
   120   61  127 1    
   121   61  128 1    
   122   61  129 1    
   123   62   63 2    
   124   62   64 am   BACKBONE|DICT|INTERRES
   125   64   65 1    
   126   64  130 1    
   127   65   66 1    
   128   65   69 1    
   129   65  131 1    
   130   66   67 am   BACKBONE|DICT|INTERRES
   131   66   68 2    
   132   67  132 1    
   133   67  133 1    
   134   69   70 1    
   135   69  134 1    
   136   69  135 1    
   137   70   71 1    
   138   71  136 1    
   139   71  137 1    
@<TRIPOS>SUBSTRUCTURE
     1 UNK         1 GROUP             0       ****    0 ROOT    
