@<TRIPOS>MOLECULE
3R136
137   139    1
SMALL
USER_CHARGES


@<TRIPOS>ATOM
      1 CA         29.5535   23.5736   -2.5428 C.3       0 UNK        -0.1979 
      2 C          29.0457   23.4947   -1.1124 C.2       0 UNK         0.4864 
      3 O          28.3382   24.4013   -0.6685 O.2       0 UNK        -0.5359 
      4 N          29.3876   22.4140   -0.3942 N.am      1 UNK        -0.4318 
      5 CA         29.0741   22.1871    1.0250 C.3       1 UNK         0.0824 
      6 C6         29.6719   20.8632    1.5687 C.3       12 UNK        -0.0944 
      7 S7         31.4466   20.6453    1.2073 S.3       12 UNK        -0.2672 
      8 C8         32.2216   21.3149    2.7149 C.3       12 UNK         0.0333 
      9 C9         32.0823   22.8283    2.8002 C.ar      12 UNK        -0.0807 
     10 C10        31.4041   23.4244    3.8675 C.ar      12 UNK        -0.0894 
     11 C11        31.2709   24.8153    3.9452 C.ar      12 UNK        -0.0804 
     12 C12        31.8081   25.6074    2.9196 C.ar      12 UNK        -0.0824 
     13 C13        32.5058   25.0232    1.8594 C.ar      12 UNK        -0.0762 
     14 C14        32.6421   23.6353    1.8076 C.ar      12 UNK        -0.0782 
     15 C15        33.1337   25.8790    0.7723 C.3       12 UNK         0.0230 
     16 S16        31.9935   26.1232   -0.6228 S.3       12 UNK        -0.2608 
     17 C17        31.2734   27.7496   -0.2263 C.3       12 UNK        -0.0989 
     18 CA         29.7384   27.7889   -0.4457 C.3       5 UNK         0.0716 
     19 N          29.0090   26.9224    0.4918 N.am      5 UNK        -0.4135 
     20 C          28.7864   27.1607    1.7943 C.2       4 UNK         0.5031 
     21 O          29.2647   28.1202    2.3992 O.2       4 UNK        -0.5229 
     22 CA         27.8018   26.2204    2.5208 C.3       4 UNK         0.0329 
     23 CB         27.1648   26.8816    3.7619 C.3       4 UNK        -0.2001 
     24 N          26.7547   25.6782    1.6455 N.am      4 UNK        -0.4303 
     25 C          25.9040   26.3618    0.8607 C.2       3 UNK         0.5044 
     26 O          25.8498   27.5919    0.8282 O.2       3 UNK        -0.5152 
     27 CA         25.0135   25.5545   -0.1024 C.3       3 UNK         0.0319 
     28 CB         25.1537   26.0839   -1.5414 C.3       3 UNK        -0.2001 
     29 N          25.3656   24.1337   -0.0995 N.am      3 UNK        -0.4354 
     30 C          24.6542   23.1596    0.4834 C.2       2 UNK         0.4964 
     31 O          23.5611   23.3351    1.0222 O.2       2 UNK        -0.5047 
     32 CA         25.2715   21.7477    0.4855 C.3       2 UNK         0.0288 
     33 CB         24.6984   20.9105   -0.6696 C.3       2 UNK        -0.2113 
     34 N          26.7366   21.7367    0.4049 N.am      2 UNK        -0.4145 
     35 C          27.5648   22.2358    1.3356 C.2       1 UNK         0.5006 
     36 O          27.1792   22.7579    2.3819 O.2       1 UNK        -0.5103 
     37 C          29.1793   29.2369   -0.4922 C.2       5 UNK         0.5055 
     38 O          29.9384   30.1771   -0.7325 O.2       5 UNK        -0.5220 
     39 N          27.8647   29.3907   -0.2579 N.am      6 UNK        -0.4450 
     40 CA         27.1228   30.6497   -0.1186 C.3       6 UNK         0.0367 
     41 CB         27.1692   31.4868   -1.4155 C.3       6 UNK        -0.1929 
     42 C          27.5052   31.4576    1.1406 C.2       6 UNK         0.5070 
     43 O          27.3182   32.6756    1.1554 O.2       6 UNK        -0.5237 
     44 N          27.9917   30.7669    2.1844 N.am      7 UNK        -0.4739 
     45 CA         28.4098   31.2932    3.4871 C.3       7 UNK         0.0276 
     46 CB         27.2057   31.8675    4.2689 C.3       7 UNK        -0.1927 
     47 C          29.6099   32.2487    3.3501 C.2       7 UNK         0.5013 
     48 O          30.6300   31.8382    2.7978 O.2       7 UNK        -0.5193 
     49 N          29.5041   33.4751    3.8874 N.am      8 UNK        -0.4253 
     50 CA         30.5094   34.5515    3.8355 C.3       8 UNK         0.0242 
     51 CB         30.5880   35.1298    2.4063 C.3       8 UNK        -0.2000 
     52 C          31.8974   34.1471    4.3824 C.2       8 UNK         0.4948 
     53 O          32.9177   34.6316    3.8901 O.2       8 UNK        -0.5275 
     54 N          31.9012   33.2442    5.3755 N.am      9 UNK        -0.4246 
     55 CA         33.0625   32.6087    6.0113 C.3       9 UNK         0.0261 
     56 CB         33.9395   33.6500    6.7400 C.3       9 UNK        -0.1959 
     57 C          33.8896   31.6924    5.0822 C.2       9 UNK         0.5033 
     58 O          35.0046   31.3202    5.4552 O.2       9 UNK        -0.5390 
     59 N          33.3386   31.2857    3.9249 N.am      10 UNK        -0.4215 
     60 CA         33.9912   30.3818    2.9655 C.3       10 UNK         0.0240 
     61 CB         33.1759   30.3332    1.6647 C.3       10 UNK        -0.1982 
     62 C          34.2347   28.9580    3.5020 C.2       10 UNK         0.4970 
     63 O          35.0793   28.2492    2.9540 O.2       10 UNK        -0.4916 
     64 N          33.5169   28.5751    4.5658 N.am      11 UNK        -0.4279 
     65 CA         33.7286   27.3380    5.3313 C.3       11 UNK         0.1003 
     66 C          35.0768   27.2880    6.1111 C.2       11 UNK         0.5709 
     67 N          35.7802   28.3990    6.3078 N.am      11 UNK        -0.7358 
     68 O          35.4925   26.2166    6.5456 O.2       11 UNK        -0.4999 
     69 C69        32.5429   27.0366    6.2889 C.3       12 UNK        -0.0954 
     70 S70        30.8947   27.1571    5.5119 S.3       12 UNK        -0.2268 
     71 C71        30.5191   25.4097    5.1381 C.3       12 UNK         0.0203 
     72 H72        28.7144   23.6204   -3.2362 H         1 UNK         0.0888 
     73 H73        30.1553   24.4725   -2.6739 H         1 UNK         0.0888 
     74 H74        30.1675   22.7127   -2.8062 H         1 UNK         0.0888 
     75 H75        29.9824   21.7127   -0.8130 H         1 UNK         0.3017 
     76 H76        29.5289   23.0153    1.5719 H         1 UNK         0.0873 
     77 H77        29.5204   20.7917    2.6478 H         1 UNK         0.0745 
     78 H78        29.1513   20.0062    1.1365 H         1 UNK         0.0745 
     79 H79        31.7944   20.8266    3.5922 H         1 UNK         0.0705 
     80 H80        33.2820   21.0591    2.7077 H         1 UNK         0.0705 
     81 H81        30.9765   22.8028    4.6426 H         1 UNK         0.1334 
     82 H82        31.6988   26.6825    2.9444 H         1 UNK         0.1417 
     83 H83        33.1736   23.1780    0.9838 H         1 UNK         0.1562 
     84 H84        34.0366   25.3931    0.3994 H         1 UNK         0.0748 
     85 H85        33.4615   26.8376    1.1763 H         1 UNK         0.0748 
     86 H86        31.7871   28.4759   -0.8585 H         1 UNK         0.0940 
     87 H87        31.5046   28.0223    0.8027 H         1 UNK         0.0940 
     88 H88        29.5372   27.3820   -1.4379 H         1 UNK         0.0703 
     89 H89        28.6219   26.0714    0.0864 H         1 UNK         0.3081 
     90 H90        28.3910   25.3652    2.8522 H         1 UNK         0.0719 
     91 H91        27.9254   27.2085    4.4715 H         1 UNK         0.0809 
     92 H92        26.5772   27.7601    3.4932 H         1 UNK         0.0809 
     93 H93        26.5103   26.1870    4.2881 H         1 UNK         0.0809 
     94 H94        26.7192   24.6664    1.6079 H         1 UNK         0.2990 
     95 H95        23.9794   25.6967    0.2176 H         1 UNK         0.0690 
     96 H96        24.5227   25.5239   -2.2317 H         1 UNK         0.0788 
     97 H97        26.1829   26.0150   -1.8970 H         1 UNK         0.0788 
     98 H98        24.8532   27.1304   -1.6087 H         1 UNK         0.0788 
     99 H99        26.2748   23.9108   -0.4899 H         1 UNK         0.2993 
    100 H100       24.9881   21.2740    1.4280 H         1 UNK         0.0949 
    101 H101       23.6089   20.8746   -0.6226 H         1 UNK         0.0767 
    102 H102       24.9691   21.3245   -1.6418 H         1 UNK         0.0767 
    103 H103       25.0557   19.8812   -0.6300 H         1 UNK         0.0767 
    104 H104       27.1434   21.3381   -0.4292 H         1 UNK         0.3013 
    105 H105       27.3180   28.5655   -0.0249 H         1 UNK         0.3121 
    106 H106       26.0834   30.3548    0.0339 H         1 UNK         0.0774 
    107 H107       28.1585   31.9091   -1.5920 H         1 UNK         0.0815 
    108 H108       26.4685   32.3210   -1.3653 H         1 UNK         0.0815 
    109 H109       26.8968   30.8890   -2.2851 H         1 UNK         0.0815 
    110 H110       28.2065   29.7836    2.0476 H         1 UNK         0.2987 
    111 H111       28.7816   30.4333    4.0472 H         1 UNK         0.0949 
    112 H112       26.7792   32.7485    3.7880 H         1 UNK         0.0806 
    113 H113       26.4112   31.1261    4.3554 H         1 UNK         0.0806 
    114 H114       27.4887   32.1445    5.2852 H         1 UNK         0.0806 
    115 H115       28.6304   33.7138    4.3359 H         1 UNK         0.3010 
    116 H116       30.1476   35.3433    4.4931 H         1 UNK         0.0829 
    117 H117       31.2267   36.0134    2.3723 H         1 UNK         0.0813 
    118 H118       30.9963   34.4043    1.7015 H         1 UNK         0.0813 
    119 H119       29.6042   35.4289    2.0445 H         1 UNK         0.0813 
    120 H120       31.0010   32.9171    5.6981 H         1 UNK         0.3038 
    121 H121       32.6506   31.9469    6.7746 H         1 UNK         0.0769 
    122 H122       34.4593   34.3045    6.0399 H         1 UNK         0.0811 
    123 H123       34.7006   33.1630    7.3509 H         1 UNK         0.0811 
    124 H124       33.3447   34.2747    7.4062 H         1 UNK         0.0811 
    125 H125       32.4130   31.6187    3.6660 H         1 UNK         0.3204 
    126 H126       34.9707   30.8046    2.7329 H         1 UNK         0.0748 
    127 H127       33.6518   29.6908    0.9225 H         1 UNK         0.0771 
    128 H128       32.1719   29.9464    1.8396 H         1 UNK         0.0771 
    129 H129       33.0760   31.3238    1.2206 H         1 UNK         0.0771 
    130 H130       32.8253   29.2088    4.9349 H         1 UNK         0.2980 
    131 H131       33.7818   26.5242    4.6073 H         1 UNK         0.0545 
    132 H132       36.6503   28.3450    6.8128 H         1 UNK         0.3459 
    133 H133       35.4570   29.2932    5.9583 H         1 UNK         0.3459 
    134 H134       32.6552   26.0449    6.7306 H         1 UNK         0.0616 
    135 H135       32.5516   27.7385    7.1248 H         1 UNK         0.0616 
    136 H136       29.4501   25.3220    4.9493 H         1 UNK         0.0634 
    137 H137       30.7141   24.8169    6.0330 H         1 UNK         0.0634 
@<TRIPOS>BOND
     1    1    2 1    
     2    1   72 1    
     3    1   73 1    
     4    1   74 1    
     5    2    3 2    
     6    2    4 am   BACKBONE|DICT|INTERRES
     7    4    5 1    
     8    4   75 1    
     9    5    6 1    
    10    5   35 1    
    11    5   76 1    
    12    6    7 1    
    13    6   77 1    
    14    6   78 1    
    15    7    8 1    
    16    8    9 1    
    17    8   79 1    
    18    8   80 1    
    19    9   10 ar   
    20    9   14 ar   
    21   10   11 ar   
    22   10   81 1    
    23   11   12 ar   
    24   11   71 1    
    25   12   13 ar   
    26   12   82 1    
    27   13   14 ar   
    28   13   15 1    
    29   14   83 1    
    30   15   16 1    
    31   15   84 1    
    32   15   85 1    
    33   16   17 1    
    34   17   18 1    
    35   17   86 1    
    36   17   87 1    
    37   18   19 1    
    38   18   37 1    
    39   18   88 1    
    40   19   20 am   BACKBONE|DICT|INTERRES
    41   19   89 1    
    42   20   21 2    
    43   20   22 1    
    44   22   23 1    
    45   22   24 1    
    46   22   90 1    
    47   23   91 1    
    48   23   92 1    
    49   23   93 1    
    50   24   25 am   BACKBONE|DICT|INTERRES
    51   24   94 1    
    52   25   26 2    
    53   25   27 1    
    54   27   28 1    
    55   27   29 1    
    56   27   95 1    
    57   28   96 1    
    58   28   97 1    
    59   28   98 1    
    60   29   30 am   BACKBONE|DICT|INTERRES
    61   29   99 1    
    62   30   31 2    
    63   30   32 1    
    64   32   33 1    
    65   32   34 1    
    66   32  100 1    
    67   33  101 1    
    68   33  102 1    
    69   33  103 1    
    70   34   35 am   BACKBONE|DICT|INTERRES
    71   34  104 1    
    72   35   36 2    
    73   37   38 2    
    74   37   39 am   BACKBONE|DICT|INTERRES
    75   39   40 1    
    76   39  105 1    
    77   40   41 1    
    78   40   42 1    
    79   40  106 1    
    80   41  107 1    
    81   41  108 1    
    82   41  109 1    
    83   42   43 2    
    84   42   44 am   BACKBONE|DICT|INTERRES
    85   44   45 1    
    86   44  110 1    
    87   45   46 1    
    88   45   47 1    
    89   45  111 1    
    90   46  112 1    
    91   46  113 1    
    92   46  114 1    
    93   47   48 2    
    94   47   49 am   BACKBONE|DICT|INTERRES
    95   49   50 1    
    96   49  115 1    
    97   50   51 1    
    98   50   52 1    
    99   50  116 1    
   100   51  117 1    
   101   51  118 1    
   102   51  119 1    
   103   52   53 2    
   104   52   54 am   BACKBONE|DICT|INTERRES
   105   54   55 1    
   106   54  120 1    
   107   55   56 1    
   108   55   57 1    
   109   55  121 1    
   110   56  122 1    
   111   56  123 1    
   112   56  124 1    
   113   57   58 2    
   114   57   59 am   BACKBONE|DICT|INTERRES
   115   59   60 1    
   116   59  125 1    
   117   60   61 1    
   118   60   62 1    
   119   60  126 1    
   120   61  127 1    
   121   61  128 1    
   122   61  129 1    
   123   62   63 2    
   124   62   64 am   BACKBONE|DICT|INTERRES
   125   64   65 1    
   126   64  130 1    
   127   65   66 1    
   128   65   69 1    
   129   65  131 1    
   130   66   67 am   BACKBONE|DICT|INTERRES
   131   66   68 2    
   132   67  132 1    
   133   67  133 1    
   134   69   70 1    
   135   69  134 1    
   136   69  135 1    
   137   70   71 1    
   138   71  136 1    
   139   71  137 1    
@<TRIPOS>SUBSTRUCTURE
     1 UNK         1 GROUP             0       ****    0 ROOT    
