@<TRIPOS>MOLECULE
3R136
137   139    1
SMALL
USER_CHARGES


@<TRIPOS>ATOM
      1 CA         24.9689   26.0015    1.8467 C.3       0 UNK        -0.1979 
      2 C          25.3606   24.5367    1.9487 C.2       0 UNK         0.4864 
      3 O          24.4914   23.7027    2.2121 O.2       0 UNK        -0.5359 
      4 N          26.6406   24.1977    1.7242 N.am      1 UNK        -0.4318 
      5 CA         27.1162   22.8109    1.6733 C.3       1 UNK         0.0824 
      6 C6         28.6606   22.6824    1.8099 C.3       12 UNK        -0.0944 
      7 S7         29.6651   23.1850    0.3682 S.3       12 UNK        -0.2672 
      8 C8         31.3154   23.3888    1.1115 C.3       12 UNK         0.0333 
      9 C9         31.6630   24.8520    1.3526 C.ar      12 UNK        -0.0807 
     10 C10        31.8608   25.3388    2.6491 C.ar      12 UNK        -0.0894 
     11 C11        32.2530   26.6664    2.8526 C.ar      12 UNK        -0.0804 
     12 C12        32.4221   27.5124    1.7537 C.ar      12 UNK        -0.0824 
     13 C13        32.1998   27.0473    0.4554 C.ar      12 UNK        -0.0762 
     14 C14        31.8394   25.7103    0.2627 C.ar      12 UNK        -0.0782 
     15 C15        32.3869   27.9789   -0.7349 C.3       12 UNK         0.0230 
     16 S16        30.8931   28.9648   -1.0874 S.3       12 UNK        -0.2608 
     17 C17        29.7690   27.7131   -1.8077 C.3       12 UNK        -0.0989 
     18 CA         28.3519   27.6391   -1.1776 C.3       5 UNK         0.0716 
     19 N          27.5551   26.6323   -1.8857 N.am      5 UNK        -0.4135 
     20 C          26.2239   26.4978   -1.8398 C.2       4 UNK         0.5031 
     21 O          25.4882   27.2432   -1.1908 O.2       4 UNK        -0.5229 
     22 CA         25.5987   25.3769   -2.6961 C.3       4 UNK         0.0329 
     23 CB         26.6254   24.5015   -3.4466 C.3       4 UNK        -0.2001 
     24 N          24.7498   24.5189   -1.8667 N.am      4 UNK        -0.4303 
     25 C          23.4150   24.6211   -1.7697 C.2       3 UNK         0.5044 
     26 O          22.7513   25.4325   -2.4182 O.2       3 UNK        -0.5152 
     27 CA         22.6815   23.6918   -0.7754 C.3       3 UNK         0.0319 
     28 CB         21.2810   23.2718   -1.2726 C.3       3 UNK        -0.2001 
     29 N          23.4621   22.5299   -0.3322 N.am      3 UNK        -0.4354 
     30 C          23.8613   21.4732   -1.0607 C.2       2 UNK         0.4964 
     31 O          23.5434   21.2918   -2.2369 O.2       2 UNK        -0.5047 
     32 CA         24.8033   20.4659   -0.3544 C.3       2 UNK         0.0288 
     33 CB         25.6326   19.6270   -1.3508 C.3       2 UNK        -0.2113 
     34 N          25.6836   21.0929    0.6467 N.am      2 UNK        -0.4145 
     35 C          26.5121   22.1266    0.4280 C.2       1 UNK         0.5006 
     36 O          26.6969   22.6197   -0.6860 O.2       1 UNK        -0.5103 
     37 C          28.3836   27.3618    0.3426 C.2       5 UNK         0.5055 
     38 O          28.3337   26.2054    0.7609 O.2       5 UNK        -0.5220 
     39 N          28.4891   28.4302    1.1391 N.am      6 UNK        -0.4450 
     40 CA         28.7299   28.3948    2.5803 C.3       6 UNK         0.0367 
     41 CB         27.4567   28.0218    3.3647 C.3       6 UNK        -0.1929 
     42 C          29.3358   29.7369    3.0052 C.2       6 UNK         0.5070 
     43 O          28.7747   30.4386    3.8486 O.2       6 UNK        -0.5237 
     44 N          30.4624   30.0949    2.3758 N.am      7 UNK        -0.4739 
     45 CA         31.2454   31.2978    2.6644 C.3       7 UNK         0.0276 
     46 CB         32.2385   31.5513    1.5146 C.3       7 UNK        -0.1927 
     47 C          31.9520   31.1942    4.0283 C.2       7 UNK         0.5013 
     48 O          33.1455   30.8911    4.0899 O.2       7 UNK        -0.5193 
     49 N          31.1992   31.4502    5.1060 N.am      8 UNK        -0.4253 
     50 CA         31.6586   31.4247    6.4998 C.3       8 UNK         0.0242 
     51 CB         30.4766   31.7358    7.4308 C.3       8 UNK        -0.2000 
     52 C          32.8393   32.3678    6.7933 C.2       8 UNK         0.4948 
     53 O          33.6422   32.0667    7.6746 O.2       8 UNK        -0.5275 
     54 N          32.9587   33.4582    6.0225 N.am      9 UNK        -0.4246 
     55 CA         34.1034   34.3720    6.0391 C.3       9 UNK         0.0261 
     56 CB         33.7800   35.6025    5.1761 C.3       9 UNK        -0.1959 
     57 C          35.4218   33.7209    5.5747 C.2       9 UNK         0.5033 
     58 O          36.4865   34.1698    6.0021 O.2       9 UNK        -0.5390 
     59 N          35.3374   32.6883    4.7226 N.am      10 UNK        -0.4215 
     60 CA         36.4789   31.8913    4.2765 C.3       10 UNK         0.0240 
     61 CB         36.2604   31.4309    2.8244 C.3       10 UNK        -0.1982 
     62 C          36.7026   30.6888    5.2048 C.2       10 UNK         0.4970 
     63 O          37.8464   30.4315    5.5828 O.2       10 UNK        -0.4916 
     64 N          35.6211   29.9742    5.5479 N.am      11 UNK        -0.4279 
     65 CA         35.6672   28.7780    6.4066 C.3       11 UNK         0.1003 
     66 C          35.9715   29.0557    7.9057 C.2       11 UNK         0.5709 
     67 N          35.6604   30.2246    8.4492 N.am      11 UNK        -0.7358 
     68 O          36.5166   28.1912    8.5881 O.2       11 UNK        -0.4999 
     69 C69        34.4042   27.8944    6.2443 C.3       12 UNK        -0.0954 
     70 S70        34.3191   27.1610    4.5798 S.3       12 UNK        -0.2268 
     71 C71        32.5333   27.1882    4.2520 C.3       12 UNK         0.0203 
     72 H72        25.7597   26.6044    1.4070 H         1 UNK         0.0888 
     73 H73        24.7370   26.4000    2.8337 H         1 UNK         0.0888 
     74 H74        24.0859   26.1117    1.2181 H         1 UNK         0.0888 
     75 H75        27.3158   24.9058    1.4295 H         1 UNK         0.3017 
     76 H76        26.7014   22.3157    2.5544 H         1 UNK         0.0873 
     77 H77        28.9155   21.6454    2.0345 H         1 UNK         0.0745 
     78 H78        28.9910   23.2594    2.6754 H         1 UNK         0.0745 
     79 H79        31.3854   22.8094    2.0334 H         1 UNK         0.0705 
     80 H80        32.0546   22.9625    0.4320 H         1 UNK         0.0705 
     81 H81        31.7411   24.6783    3.4970 H         1 UNK         0.1334 
     82 H82        32.7511   28.5284    1.9159 H         1 UNK         0.1417 
     83 H83        31.6977   25.3259   -0.7376 H         1 UNK         0.1562 
     84 H84        32.6707   27.4145   -1.6247 H         1 UNK         0.0748 
     85 H85        33.2150   28.6611   -0.5363 H         1 UNK         0.0748 
     86 H86        30.2404   26.7317   -1.7740 H         1 UNK         0.0940 
     87 H87        29.6767   27.9488   -2.8693 H         1 UNK         0.0940 
     88 H88        27.8632   28.6039   -1.3297 H         1 UNK         0.0703 
     89 H89        28.0764   25.9427   -2.4053 H         1 UNK         0.3081 
     90 H90        24.9919   25.8746   -3.4552 H         1 UNK         0.0719 
     91 H91        27.3324   24.0181   -2.7717 H         1 UNK         0.0809 
     92 H92        26.1252   23.7139   -4.0107 H         1 UNK         0.0809 
     93 H93        27.1967   25.0890   -4.1666 H         1 UNK         0.0809 
     94 H94        25.2393   23.8232   -1.3116 H         1 UNK         0.2990 
     95 H95        22.5320   24.2937    0.1219 H         1 UNK         0.0690 
     96 H96        20.7805   22.6254   -0.5517 H         1 UNK         0.0788 
     97 H97        21.3291   22.7418   -2.2241 H         1 UNK         0.0788 
     98 H98        20.6411   24.1425   -1.4213 H         1 UNK         0.0788 
     99 H99        23.8028   22.6020    0.6223 H         1 UNK         0.2993 
    100 H100       24.1519   19.7819    0.1918 H         1 UNK         0.0949 
    101 H101       24.9853   19.0526   -2.0148 H         1 UNK         0.0767 
    102 H102       26.2667   20.2549   -1.9778 H         1 UNK         0.0767 
    103 H103       26.2744   18.9151   -0.8318 H         1 UNK         0.0767 
    104 H104       25.5517   20.7786    1.5988 H         1 UNK         0.3013 
    105 H105       28.5332   29.3484    0.7167 H         1 UNK         0.3121 
    106 H106       29.4862   27.6352    2.7895 H         1 UNK         0.0774 
    107 H107       27.2056   26.9731    3.2187 H         1 UNK         0.0815 
    108 H108       26.6028   28.6299    3.0652 H         1 UNK         0.0815 
    109 H109       27.5987   28.1574    4.4376 H         1 UNK         0.0815 
    110 H110       30.8398   29.4668    1.6797 H         1 UNK         0.2987 
    111 H111       30.5648   32.1513    2.7045 H         1 UNK         0.0949 
    112 H112       32.9576   30.7405    1.4010 H         1 UNK         0.0806 
    113 H113       31.7209   31.6739    0.5630 H         1 UNK         0.0806 
    114 H114       32.8100   32.4636    1.6903 H         1 UNK         0.0806 
    115 H115       30.2058   31.5865    4.9544 H         1 UNK         0.3010 
    116 H116       31.9996   30.4091    6.7088 H         1 UNK         0.0829 
    117 H117       29.6699   31.0136    7.3029 H         1 UNK         0.0813 
    118 H118       30.7825   31.6954    8.4774 H         1 UNK         0.0813 
    119 H119       30.0693   32.7309    7.2478 H         1 UNK         0.0813 
    120 H120       32.2406   33.6372    5.3360 H         1 UNK         0.3038 
    121 H121       34.2490   34.7040    7.0693 H         1 UNK         0.0769 
    122 H122       33.6043   35.3315    4.1342 H         1 UNK         0.0811 
    123 H123       34.6045   36.3168    5.1917 H         1 UNK         0.0811 
    124 H124       32.8959   36.1244    5.5428 H         1 UNK         0.0811 
    125 H125       34.4221   32.3386    4.4575 H         1 UNK         0.3204 
    126 H126       37.3828   32.5042    4.2956 H         1 UNK         0.0748 
    127 H127       36.1149   32.2809    2.1576 H         1 UNK         0.0771 
    128 H128       37.1265   30.8773    2.4594 H         1 UNK         0.0771 
    129 H129       35.3938   30.7766    2.7249 H         1 UNK         0.0771 
    130 H130       34.7179   30.2235    5.1599 H         1 UNK         0.2980 
    131 H131       36.5126   28.1804    6.0583 H         1 UNK         0.0545 
    132 H132       35.8782   30.3822    9.4195 H         1 UNK         0.3459 
    133 H133       35.1129   30.9156    7.9444 H         1 UNK         0.3459 
    134 H134       34.4064   27.0695    6.9595 H         1 UNK         0.0616 
    135 H135       33.5036   28.4765    6.4450 H         1 UNK         0.0616 
    136 H136       32.1561   28.2064    4.3526 H         1 UNK         0.0634 
    137 H137       32.0160   26.5856    5.0001 H         1 UNK         0.0634 
@<TRIPOS>BOND
     1    1    2 1    
     2    1   72 1    
     3    1   73 1    
     4    1   74 1    
     5    2    3 2    
     6    2    4 am   BACKBONE|DICT|INTERRES
     7    4    5 1    
     8    4   75 1    
     9    5    6 1    
    10    5   35 1    
    11    5   76 1    
    12    6    7 1    
    13    6   77 1    
    14    6   78 1    
    15    7    8 1    
    16    8    9 1    
    17    8   79 1    
    18    8   80 1    
    19    9   10 ar   
    20    9   14 ar   
    21   10   11 ar   
    22   10   81 1    
    23   11   12 ar   
    24   11   71 1    
    25   12   13 ar   
    26   12   82 1    
    27   13   14 ar   
    28   13   15 1    
    29   14   83 1    
    30   15   16 1    
    31   15   84 1    
    32   15   85 1    
    33   16   17 1    
    34   17   18 1    
    35   17   86 1    
    36   17   87 1    
    37   18   19 1    
    38   18   37 1    
    39   18   88 1    
    40   19   20 am   BACKBONE|DICT|INTERRES
    41   19   89 1    
    42   20   21 2    
    43   20   22 1    
    44   22   23 1    
    45   22   24 1    
    46   22   90 1    
    47   23   91 1    
    48   23   92 1    
    49   23   93 1    
    50   24   25 am   BACKBONE|DICT|INTERRES
    51   24   94 1    
    52   25   26 2    
    53   25   27 1    
    54   27   28 1    
    55   27   29 1    
    56   27   95 1    
    57   28   96 1    
    58   28   97 1    
    59   28   98 1    
    60   29   30 am   BACKBONE|DICT|INTERRES
    61   29   99 1    
    62   30   31 2    
    63   30   32 1    
    64   32   33 1    
    65   32   34 1    
    66   32  100 1    
    67   33  101 1    
    68   33  102 1    
    69   33  103 1    
    70   34   35 am   BACKBONE|DICT|INTERRES
    71   34  104 1    
    72   35   36 2    
    73   37   38 2    
    74   37   39 am   BACKBONE|DICT|INTERRES
    75   39   40 1    
    76   39  105 1    
    77   40   41 1    
    78   40   42 1    
    79   40  106 1    
    80   41  107 1    
    81   41  108 1    
    82   41  109 1    
    83   42   43 2    
    84   42   44 am   BACKBONE|DICT|INTERRES
    85   44   45 1    
    86   44  110 1    
    87   45   46 1    
    88   45   47 1    
    89   45  111 1    
    90   46  112 1    
    91   46  113 1    
    92   46  114 1    
    93   47   48 2    
    94   47   49 am   BACKBONE|DICT|INTERRES
    95   49   50 1    
    96   49  115 1    
    97   50   51 1    
    98   50   52 1    
    99   50  116 1    
   100   51  117 1    
   101   51  118 1    
   102   51  119 1    
   103   52   53 2    
   104   52   54 am   BACKBONE|DICT|INTERRES
   105   54   55 1    
   106   54  120 1    
   107   55   56 1    
   108   55   57 1    
   109   55  121 1    
   110   56  122 1    
   111   56  123 1    
   112   56  124 1    
   113   57   58 2    
   114   57   59 am   BACKBONE|DICT|INTERRES
   115   59   60 1    
   116   59  125 1    
   117   60   61 1    
   118   60   62 1    
   119   60  126 1    
   120   61  127 1    
   121   61  128 1    
   122   61  129 1    
   123   62   63 2    
   124   62   64 am   BACKBONE|DICT|INTERRES
   125   64   65 1    
   126   64  130 1    
   127   65   66 1    
   128   65   69 1    
   129   65  131 1    
   130   66   67 am   BACKBONE|DICT|INTERRES
   131   66   68 2    
   132   67  132 1    
   133   67  133 1    
   134   69   70 1    
   135   69  134 1    
   136   69  135 1    
   137   70   71 1    
   138   71  136 1    
   139   71  137 1    
@<TRIPOS>SUBSTRUCTURE
     1 UNK         1 GROUP             0       ****    0 ROOT    
