@<TRIPOS>MOLECULE
3R136
137   139    1
SMALL
USER_CHARGES


@<TRIPOS>ATOM
      1 CA         29.9550   27.5983    2.5318 C.3       0 UNK        -0.1979 
      2 C          29.3531   26.3722    3.1964 C.2       0 UNK         0.4864 
      3 O          28.4221   26.5018    3.9914 O.2       0 UNK        -0.5359 
      4 N          29.8842   25.1832    2.8828 N.am      1 UNK        -0.4318 
      5 CA         29.5192   23.9041    3.5049 C.3       1 UNK         0.0824 
      6 C6         30.5345   22.7904    3.1464 C.3       12 UNK        -0.0944 
      7 S7         30.6065   22.4018    1.3604 S.3       12 UNK        -0.2672 
      8 C8         32.3291   22.8080    0.9477 C.3       12 UNK         0.0333 
      9 C9         32.5683   24.3080    0.8479 C.ar      12 UNK        -0.0807 
     10 C10        33.3237   24.9705    1.8208 C.ar      12 UNK        -0.0894 
     11 C11        33.6379   26.3265    1.6805 C.ar      12 UNK        -0.0804 
     12 C12        33.1776   27.0185    0.5541 C.ar      12 UNK        -0.0824 
     13 C13        32.3968   26.3750   -0.4111 C.ar      12 UNK        -0.0762 
     14 C14        32.0933   25.0194   -0.2583 C.ar      12 UNK        -0.0782 
     15 C15        31.9273   27.1409   -1.6391 C.3       12 UNK         0.0230 
     16 S16        30.6142   28.3295   -1.2282 S.3       12 UNK        -0.2608 
     17 C17        29.1316   27.2676   -1.1143 C.3       12 UNK        -0.0989 
     18 CA         27.9179   27.8810   -1.8580 C.3       5 UNK         0.0716 
     19 N          26.8871   26.8713   -2.0847 N.am      5 UNK        -0.4135 
     20 C          26.2432   26.6619   -3.2408 C.2       4 UNK         0.5031 
     21 O          26.5188   27.2396   -4.2934 O.2       4 UNK        -0.5229 
     22 CA         25.0928   25.6338   -3.2386 C.3       4 UNK         0.0329 
     23 CB         25.5798   24.2825   -3.7860 C.3       4 UNK        -0.2001 
     24 N          24.5045   25.4274   -1.9139 N.am      4 UNK        -0.4303 
     25 C          23.7928   26.3414   -1.2399 C.2       3 UNK         0.5044 
     26 O          23.4068   27.4008   -1.7350 O.2       3 UNK        -0.5152 
     27 CA         23.4645   26.0399    0.2371 C.3       3 UNK         0.0319 
     28 CB         21.9622   25.7573    0.4064 C.3       3 UNK        -0.2001 
     29 N          24.2251   24.9395    0.8486 N.am      3 UNK        -0.4354 
     30 C          25.5568   24.8791    0.9901 C.2       2 UNK         0.4964 
     31 O          26.3423   25.7137    0.5328 O.2       2 UNK        -0.5047 
     32 CA         26.1025   23.6464    1.7156 C.3       2 UNK         0.0288 
     33 CB         26.1004   22.4144    0.7924 C.3       2 UNK        -0.2113 
     34 N          27.4669   23.9304    2.1419 N.am      2 UNK        -0.4145 
     35 C          28.0653   23.4497    3.2368 C.2       1 UNK         0.5006 
     36 O          27.5240   22.6687    4.0226 O.2       1 UNK        -0.5103 
     37 C          27.2986   29.0532   -1.0682 C.2       5 UNK         0.5055 
     38 O          26.3164   28.8701   -0.3456 O.2       5 UNK        -0.5220 
     39 N          27.9103   30.2332   -1.1995 N.am      6 UNK        -0.4450 
     40 CA         27.5926   31.4439   -0.4506 C.3       6 UNK         0.0367 
     41 CB         26.9433   32.4736   -1.3944 C.3       6 UNK        -0.1929 
     42 C          28.9033   31.9441    0.1674 C.2       6 UNK         0.5070 
     43 O          29.5494   32.8334   -0.3896 O.2       6 UNK        -0.5237 
     44 N          29.3011   31.3194    1.2793 N.am      7 UNK        -0.4739 
     45 CA         30.5251   31.6107    2.0217 C.3       7 UNK         0.0276 
     46 CB         31.6989   30.8142    1.4243 C.3       7 UNK        -0.1927 
     47 C          30.3051   31.2894    3.5064 C.2       7 UNK         0.5013 
     48 O          29.3010   30.6637    3.8601 O.2       7 UNK        -0.5193 
     49 N          31.2368   31.7411    4.3539 N.am      8 UNK        -0.4253 
     50 CA         31.1571   31.6942    5.8166 C.3       8 UNK         0.0242 
     51 CB         32.1136   32.7574    6.3912 C.3       8 UNK        -0.2000 
     52 C          31.4127   30.2946    6.4127 C.2       8 UNK         0.4948 
     53 O          32.3708   30.1220    7.1690 O.2       8 UNK        -0.5275 
     54 N          30.5421   29.3294    6.0862 N.am      9 UNK        -0.4246 
     55 CA         30.4884   27.9568    6.6091 C.3       9 UNK         0.0261 
     56 CB         30.0317   27.9574    8.0858 C.3       9 UNK        -0.1959 
     57 C          31.7953   27.1754    6.3731 C.2       9 UNK         0.5033 
     58 O          31.9823   26.6248    5.2892 O.2       9 UNK        -0.5390 
     59 N          32.6757   27.1479    7.3831 N.am      10 UNK        -0.4215 
     60 CA         34.0238   26.5773    7.3098 C.3       10 UNK         0.0240 
     61 CB         34.5606   26.3790    8.7371 C.3       10 UNK        -0.1982 
     62 C          35.0044   27.4268    6.4762 C.2       10 UNK         0.4970 
     63 O          36.0519   26.9086    6.0865 O.2       10 UNK        -0.4916 
     64 N          34.6490   28.6927    6.2169 N.am      11 UNK        -0.4279 
     65 CA         35.4021   29.6859    5.4388 C.3       11 UNK         0.1003 
     66 C          36.6952   30.1772    6.1582 C.2       11 UNK         0.5709 
     67 N          37.5368   30.9567    5.4851 N.am      11 UNK        -0.7358 
     68 O          36.9311   29.9018    7.3363 O.2       11 UNK        -0.4999 
     69 C69        35.6410   29.2598    3.9586 C.3       12 UNK        -0.0954 
     70 S70        34.1263   28.7258    3.0861 S.3       12 UNK        -0.2268 
     71 C71        34.5537   26.9933    2.7043 C.3       12 UNK         0.0203 
     72 H72        29.1705   28.2538    2.1550 H         1 UNK         0.0888 
     73 H73        30.6040   27.3283    1.7011 H         1 UNK         0.0888 
     74 H74        30.5515   28.1533    3.2552 H         1 UNK         0.0888 
     75 H75        30.6512   25.1374    2.2250 H         1 UNK         0.3017 
     76 H76        29.5854   24.0617    4.5837 H         1 UNK         0.0873 
     77 H77        31.5261   23.0776    3.4993 H         1 UNK         0.0745 
     78 H78        30.2939   21.8713    3.6843 H         1 UNK         0.0745 
     79 H79        32.9979   22.3499    1.6783 H         1 UNK         0.0705 
     80 H80        32.5728   22.3471   -0.0107 H         1 UNK         0.0705 
     81 H81        33.7032   24.4197    2.6709 H         1 UNK         0.1334 
     82 H82        33.4326   28.0606    0.4182 H         1 UNK         0.1417 
     83 H83        31.5127   24.5070   -1.0138 H         1 UNK         0.1562 
     84 H84        31.5869   26.4648   -2.4249 H         1 UNK         0.0748 
     85 H85        32.7723   27.6889   -2.0586 H         1 UNK         0.0748 
     86 H86        28.8949   27.0699   -0.0680 H         1 UNK         0.0940 
     87 H87        29.3702   26.2955   -1.5484 H         1 UNK         0.0940 
     88 H88        28.2617   28.2661   -2.8207 H         1 UNK         0.0703 
     89 H89        26.5500   26.4158   -1.2401 H         1 UNK         0.3081 
     90 H90        24.3121   26.0125   -3.9015 H         1 UNK         0.0719 
     91 H91        26.3555   23.8464   -3.1553 H         1 UNK         0.0809 
     92 H92        24.7622   23.5652   -3.8593 H         1 UNK         0.0809 
     93 H93        25.9994   24.3959   -4.7867 H         1 UNK         0.0809 
     94 H94        24.7581   24.5790   -1.4302 H         1 UNK         0.2990 
     95 H95        23.7063   26.9455    0.7975 H         1 UNK         0.0690 
     96 H96        21.6919   25.6553    1.4575 H         1 UNK         0.0788 
     97 H97        21.6635   24.8439   -0.1094 H         1 UNK         0.0788 
     98 H98        21.3613   26.5720   -0.0005 H         1 UNK         0.0788 
     99 H99        23.6722   24.1856    1.2316 H         1 UNK         0.2993 
    100 H100       25.4763   23.4580    2.5905 H         1 UNK         0.0949 
    101 H101       26.7092   22.5781   -0.0979 H         1 UNK         0.0767 
    102 H102       26.4936   21.5367    1.3057 H         1 UNK         0.0767 
    103 H103       25.0910   22.1680    0.4608 H         1 UNK         0.0767 
    104 H104       27.9469   24.6242    1.5835 H         1 UNK         0.3013 
    105 H105       28.7554   30.2759   -1.7536 H         1 UNK         0.3121 
    106 H106       26.8952   31.2339    0.3635 H         1 UNK         0.0774 
    107 H107       25.9958   32.1042   -1.7868 H         1 UNK         0.0815 
    108 H108       26.7362   33.4065   -0.8688 H         1 UNK         0.0815 
    109 H109       27.5857   32.7109   -2.2432 H         1 UNK         0.0815 
    110 H110       28.6983   30.6351    1.7194 H         1 UNK         0.2987 
    111 H111       30.7409   32.6791    1.9467 H         1 UNK         0.0949 
    112 H112       31.5501   29.7390    1.5199 H         1 UNK         0.0806 
    113 H113       31.8313   31.0350    0.3651 H         1 UNK         0.0806 
    114 H114       32.6370   31.0623    1.9206 H         1 UNK         0.0806 
    115 H115       32.0466   32.2070    3.9710 H         1 UNK         0.3010 
    116 H116       30.1436   31.9769    6.1101 H         1 UNK         0.0829 
    117 H117       31.8633   33.7551    6.0301 H         1 UNK         0.0813 
    118 H118       32.0562   32.7878    7.4802 H         1 UNK         0.0813 
    119 H119       33.1518   32.5540    6.1258 H         1 UNK         0.0813 
    120 H120       29.8386   29.5697    5.3922 H         1 UNK         0.3038 
    121 H121       29.7174   27.4402    6.0391 H         1 UNK         0.0769 
    122 H122       30.6847   28.5492    8.7279 H         1 UNK         0.0811 
    123 H123       30.0000   26.9438    8.4880 H         1 UNK         0.0811 
    124 H124       29.0262   28.3677    8.1794 H         1 UNK         0.0811 
    125 H125       32.4469   27.6672    8.2188 H         1 UNK         0.3204 
    126 H126       33.9537   25.5989    6.8298 H         1 UNK         0.0748 
    127 H127       35.5495   25.9186    8.7215 H         1 UNK         0.0771 
    128 H128       34.6516   27.3270    9.2690 H         1 UNK         0.0771 
    129 H129       33.9104   25.7259    9.3196 H         1 UNK         0.0771 
    130 H130       33.7861   29.0454    6.6226 H         1 UNK         0.2980 
    131 H131       34.7504   30.5598    5.4201 H         1 UNK         0.0545 
    132 H132       37.3598   31.2188    4.5263 H         1 UNK         0.3459 
    133 H133       38.3667   31.2919    5.9490 H         1 UNK         0.3459 
    134 H134       36.3939   28.4719    3.9105 H         1 UNK         0.0616 
    135 H135       36.0481   30.0935    3.3855 H         1 UNK         0.0616 
    136 H136       34.5505   26.4300    3.6385 H         1 UNK         0.0634 
    137 H137       35.5717   26.9525    2.3153 H         1 UNK         0.0634 
@<TRIPOS>BOND
     1    1    2 1    
     2    1   72 1    
     3    1   73 1    
     4    1   74 1    
     5    2    3 2    
     6    2    4 am   BACKBONE|DICT|INTERRES
     7    4    5 1    
     8    4   75 1    
     9    5    6 1    
    10    5   35 1    
    11    5   76 1    
    12    6    7 1    
    13    6   77 1    
    14    6   78 1    
    15    7    8 1    
    16    8    9 1    
    17    8   79 1    
    18    8   80 1    
    19    9   10 ar   
    20    9   14 ar   
    21   10   11 ar   
    22   10   81 1    
    23   11   12 ar   
    24   11   71 1    
    25   12   13 ar   
    26   12   82 1    
    27   13   14 ar   
    28   13   15 1    
    29   14   83 1    
    30   15   16 1    
    31   15   84 1    
    32   15   85 1    
    33   16   17 1    
    34   17   18 1    
    35   17   86 1    
    36   17   87 1    
    37   18   19 1    
    38   18   37 1    
    39   18   88 1    
    40   19   20 am   BACKBONE|DICT|INTERRES
    41   19   89 1    
    42   20   21 2    
    43   20   22 1    
    44   22   23 1    
    45   22   24 1    
    46   22   90 1    
    47   23   91 1    
    48   23   92 1    
    49   23   93 1    
    50   24   25 am   BACKBONE|DICT|INTERRES
    51   24   94 1    
    52   25   26 2    
    53   25   27 1    
    54   27   28 1    
    55   27   29 1    
    56   27   95 1    
    57   28   96 1    
    58   28   97 1    
    59   28   98 1    
    60   29   30 am   BACKBONE|DICT|INTERRES
    61   29   99 1    
    62   30   31 2    
    63   30   32 1    
    64   32   33 1    
    65   32   34 1    
    66   32  100 1    
    67   33  101 1    
    68   33  102 1    
    69   33  103 1    
    70   34   35 am   BACKBONE|DICT|INTERRES
    71   34  104 1    
    72   35   36 2    
    73   37   38 2    
    74   37   39 am   BACKBONE|DICT|INTERRES
    75   39   40 1    
    76   39  105 1    
    77   40   41 1    
    78   40   42 1    
    79   40  106 1    
    80   41  107 1    
    81   41  108 1    
    82   41  109 1    
    83   42   43 2    
    84   42   44 am   BACKBONE|DICT|INTERRES
    85   44   45 1    
    86   44  110 1    
    87   45   46 1    
    88   45   47 1    
    89   45  111 1    
    90   46  112 1    
    91   46  113 1    
    92   46  114 1    
    93   47   48 2    
    94   47   49 am   BACKBONE|DICT|INTERRES
    95   49   50 1    
    96   49  115 1    
    97   50   51 1    
    98   50   52 1    
    99   50  116 1    
   100   51  117 1    
   101   51  118 1    
   102   51  119 1    
   103   52   53 2    
   104   52   54 am   BACKBONE|DICT|INTERRES
   105   54   55 1    
   106   54  120 1    
   107   55   56 1    
   108   55   57 1    
   109   55  121 1    
   110   56  122 1    
   111   56  123 1    
   112   56  124 1    
   113   57   58 2    
   114   57   59 am   BACKBONE|DICT|INTERRES
   115   59   60 1    
   116   59  125 1    
   117   60   61 1    
   118   60   62 1    
   119   60  126 1    
   120   61  127 1    
   121   61  128 1    
   122   61  129 1    
   123   62   63 2    
   124   62   64 am   BACKBONE|DICT|INTERRES
   125   64   65 1    
   126   64  130 1    
   127   65   66 1    
   128   65   69 1    
   129   65  131 1    
   130   66   67 am   BACKBONE|DICT|INTERRES
   131   66   68 2    
   132   67  132 1    
   133   67  133 1    
   134   69   70 1    
   135   69  134 1    
   136   69  135 1    
   137   70   71 1    
   138   71  136 1    
   139   71  137 1    
@<TRIPOS>SUBSTRUCTURE
     1 UNK         1 GROUP             0       ****    0 ROOT    
