@<TRIPOS>MOLECULE
3R136
137   139    1
SMALL
USER_CHARGES


@<TRIPOS>ATOM
      1 CA         26.4086   17.7649    2.5253 C.3       0 UNK        -0.1979 
      2 C          26.8216   18.7734    1.4629 C.2       0 UNK         0.4864 
      3 O          26.2408   18.7874    0.3760 O.2       0 UNK        -0.5359 
      4 N          27.8237   19.6090    1.7665 N.am      1 UNK        -0.4318 
      5 CA         28.3066   20.6878    0.8971 C.3       1 UNK         0.0824 
      6 C6         29.7799   21.0563    1.2210 C.3       12 UNK        -0.0944 
      7 S7         30.7080   21.5022   -0.2827 S.3       12 UNK        -0.2672 
      8 C8         32.3838   21.7090    0.3911 C.3       12 UNK         0.0333 
      9 C9         32.6335   23.1391    0.8443 C.ar      12 UNK        -0.0807 
     10 C10        32.4614   23.5067    2.1842 C.ar      12 UNK        -0.0894 
     11 C11        32.7360   24.8148    2.5973 C.ar      12 UNK        -0.0804 
     12 C12        33.1916   25.7469    1.6638 C.ar      12 UNK        -0.0824 
     13 C13        33.3453   25.4002    0.3199 C.ar      12 UNK        -0.0762 
     14 C14        33.0641   24.0928   -0.0842 C.ar      12 UNK        -0.0782 
     15 C15        33.8386   26.4298   -0.6875 C.3       12 UNK         0.0230 
     16 S16        32.4672   27.2502   -1.5640 S.3       12 UNK        -0.2608 
     17 C17        31.7126   28.2568   -0.2412 C.3       12 UNK        -0.0989 
     18 CA         30.2495   27.8202    0.0672 C.3       5 UNK         0.0716 
     19 N          29.9517   27.7070    1.5010 N.am      5 UNK        -0.4135 
     20 C          29.9448   28.6994    2.4048 C.2       4 UNK         0.5031 
     21 O          30.2904   29.8566    2.1599 O.2       4 UNK        -0.5229 
     22 CA         29.4411   28.3429    3.8201 C.3       4 UNK         0.0329 
     23 CB         29.0286   29.5861    4.6348 C.3       4 UNK        -0.2001 
     24 N          28.3588   27.3515    3.8250 N.am      4 UNK        -0.4303 
     25 C          27.1807   27.4455    3.1932 C.2       3 UNK         0.5044 
     26 O          26.8277   28.4135    2.5178 O.2       3 UNK        -0.5152 
     27 CA         26.2729   26.2093    3.2675 C.3       3 UNK         0.0319 
     28 CB         24.8468   26.6013    3.6890 C.3       3 UNK        -0.2001 
     29 N          26.2160   25.4824    1.9950 N.am      3 UNK        -0.4354 
     30 C          27.2638   25.0052    1.3076 C.2       2 UNK         0.4964 
     31 O          28.4442   25.1865    1.6183 O.2       2 UNK        -0.5047 
     32 CA         26.9401   24.1873    0.0468 C.3       2 UNK         0.0288 
     33 CB         27.3530   24.9542   -1.2199 C.3       2 UNK        -0.2113 
     34 N          27.6237   22.8934    0.0746 N.am      2 UNK        -0.4145 
     35 C          27.3800   21.9219    0.9652 C.2       1 UNK         0.5006 
     36 O          26.4887   21.9881    1.8181 O.2       1 UNK        -0.5103 
     37 C          29.1811   28.6539   -0.6806 C.2       5 UNK         0.5055 
     38 O          29.5179   29.4554   -1.5531 O.2       5 UNK        -0.5220 
     39 N          27.9073   28.4490   -0.3100 N.am      6 UNK        -0.4450 
     40 CA         26.7160   29.1702   -0.7727 C.3       6 UNK         0.0367 
     41 CB         26.4977   29.0107   -2.2936 C.3       6 UNK        -0.1929 
     42 C          26.7360   30.6361   -0.3034 C.2       6 UNK         0.5070 
     43 O          26.6609   31.5560   -1.1196 O.2       6 UNK        -0.5237 
     44 N          26.8371   30.8057    1.0228 N.am      7 UNK        -0.4739 
     45 CA         26.8394   32.0712    1.7658 C.3       7 UNK         0.0276 
     46 CB         25.4756   32.7839    1.6383 C.3       7 UNK        -0.1927 
     47 C          28.0323   32.9895    1.4311 C.2       7 UNK         0.5013 
     48 O          27.8792   34.2123    1.4168 O.2       7 UNK        -0.5193 
     49 N          29.2113   32.3923    1.2078 N.am      8 UNK        -0.4253 
     50 CA         30.4780   33.1034    1.0002 C.3       8 UNK         0.0242 
     51 CB         31.3625   32.2796    0.0493 C.3       8 UNK        -0.2000 
     52 C          31.2223   33.3808    2.3218 C.2       8 UNK         0.4948 
     53 O          32.2920   33.9897    2.2849 O.2       8 UNK        -0.5275 
     54 N          30.6640   32.9142    3.4511 N.am      9 UNK        -0.4246 
     55 CA         31.2027   32.9712    4.8175 C.3       9 UNK         0.0261 
     56 CB         31.3955   34.4287    5.2898 C.3       9 UNK        -0.1959 
     57 C          32.4620   32.1023    5.0162 C.2       9 UNK         0.5033 
     58 O          33.2612   32.3789    5.9135 O.2       9 UNK        -0.5390 
     59 N          32.6118   31.0567    4.1922 N.am      10 UNK        -0.4215 
     60 CA         33.6803   30.0639    4.2953 C.3       10 UNK         0.0240 
     61 CB         33.8192   29.3635    2.9386 C.3       10 UNK        -0.1982 
     62 C          33.3913   29.0358    5.4031 C.2       10 UNK         0.4970 
     63 O          32.2376   28.8686    5.8030 O.2       10 UNK        -0.4916 
     64 N          34.4494   28.3485    5.8504 N.am      11 UNK        -0.4279 
     65 CA         34.4359   27.3083    6.8983 C.3       11 UNK         0.1003 
     66 C          34.1095   27.8275    8.3338 C.2       11 UNK         0.5709 
     67 N          34.1260   29.1304    8.5903 N.am      11 UNK        -0.7358 
     68 O          33.8742   27.0366    9.2447 O.2       11 UNK        -0.4999 
     69 C69        33.6022   26.0463    6.5189 C.3       12 UNK        -0.0954 
     70 S70        34.1206   25.2874    4.9413 S.3       12 UNK        -0.2268 
     71 C71        32.5401   25.2410    4.0439 C.3       12 UNK         0.0203 
     72 H72        25.3649   17.9160    2.7995 H         1 UNK         0.0888 
     73 H73        26.5177   16.7505    2.1427 H         1 UNK         0.0888 
     74 H74        27.0123   17.8532    3.4284 H         1 UNK         0.0888 
     75 H75        28.2332   19.5732    2.6889 H         1 UNK         0.3017 
     76 H76        28.2577   20.3121   -0.1279 H         1 UNK         0.0873 
     77 H77        30.2937   20.2012    1.6641 H         1 UNK         0.0745 
     78 H78        29.8527   21.8617    1.9553 H         1 UNK         0.0745 
     79 H79        33.1046   21.4419   -0.3833 H         1 UNK         0.0705 
     80 H80        32.5525   21.0087    1.2105 H         1 UNK         0.0705 
     81 H81        32.1218   22.7749    2.9043 H         1 UNK         0.1334 
     82 H82        33.4320   26.7448    1.9920 H         1 UNK         0.1417 
     83 H83        33.1889   23.8143   -1.1221 H         1 UNK         0.1562 
     84 H84        34.4812   25.9427   -1.4224 H         1 UNK         0.0748 
     85 H85        34.4596   27.1813   -0.1970 H         1 UNK         0.0748 
     86 H86        31.7857   29.3087   -0.5177 H         1 UNK         0.0940 
     87 H87        32.3292   28.1739    0.6474 H         1 UNK         0.0940 
     88 H88        30.1185   26.8005   -0.2985 H         1 UNK         0.0703 
     89 H89        29.6175   26.7916    1.7911 H         1 UNK         0.3081 
     90 H90        30.2825   27.8756    4.3311 H         1 UNK         0.0719 
     91 H91        28.6710   29.3082    5.6261 H         1 UNK         0.0809 
     92 H92        28.2407   30.1539    4.1404 H         1 UNK         0.0809 
     93 H93        29.8774   30.2516    4.7805 H         1 UNK         0.0809 
     94 H94        28.5624   26.4897    4.3124 H         1 UNK         0.2990 
     95 H95        26.6706   25.5246    4.0194 H         1 UNK         0.0690 
     96 H96        24.2168   25.7225    3.8282 H         1 UNK         0.0788 
     97 H97        24.3682   27.2443    2.9488 H         1 UNK         0.0788 
     98 H98        24.8550   27.1452    4.6347 H         1 UNK         0.0788 
     99 H99        25.2889   25.2921    1.6431 H         1 UNK         0.2993 
    100 H100       25.8651   23.9989    0.0038 H         1 UNK         0.0949 
    101 H101       28.4235   25.1629   -1.2374 H         1 UNK         0.0767 
    102 H102       27.1068   24.3928   -2.1215 H         1 UNK         0.0767 
    103 H103       26.8303   25.9088   -1.2832 H         1 UNK         0.0767 
    104 H104       28.4141   22.7842   -0.5459 H         1 UNK         0.3013 
    105 H105       27.7471   27.8349    0.4767 H         1 UNK         0.3121 
    106 H106       25.8654   28.7014   -0.2748 H         1 UNK         0.0774 
    107 H107       25.5439   29.4466   -2.5929 H         1 UNK         0.0815 
    108 H108       27.2730   29.5096   -2.8753 H         1 UNK         0.0815 
    109 H109       26.4808   27.9620   -2.5880 H         1 UNK         0.0815 
    110 H110       26.8814   29.9631    1.5971 H         1 UNK         0.2987 
    111 H111       26.9611   31.8001    2.8152 H         1 UNK         0.0949 
    112 H112       25.3000   33.1448    0.6244 H         1 UNK         0.0806 
    113 H113       24.6541   32.1191    1.9053 H         1 UNK         0.0806 
    114 H114       25.4202   33.6466    2.3034 H         1 UNK         0.0806 
    115 H115       29.2783   31.3811    1.2737 H         1 UNK         0.3010 
    116 H116       30.2795   34.0669    0.5262 H         1 UNK         0.0829 
    117 H117       30.8265   32.0020   -0.8588 H         1 UNK         0.0813 
    118 H118       32.2433   32.8473   -0.2529 H         1 UNK         0.0813 
    119 H119       31.7168   31.3660    0.5254 H         1 UNK         0.0813 
    120 H120       29.7954   32.4104    3.3467 H         1 UNK         0.3038 
    121 H121       30.4381   32.5290    5.4575 H         1 UNK         0.0769 
    122 H122       32.2135   34.9219    4.7643 H         1 UNK         0.0811 
    123 H123       30.4923   35.0192    5.1364 H         1 UNK         0.0811 
    124 H124       31.6283   34.4663    6.3547 H         1 UNK         0.0811 
    125 H125       31.8902   30.8753    3.5060 H         1 UNK         0.3204 
    126 H126       34.6173   30.5761    4.5250 H         1 UNK         0.0748 
    127 H127       34.6440   28.6497    2.9418 H         1 UNK         0.0771 
    128 H128       32.9081   28.8195    2.6993 H         1 UNK         0.0771 
    129 H129       34.0079   30.0767    2.1356 H         1 UNK         0.0771 
    130 H130       35.3591   28.5535    5.4635 H         1 UNK         0.2980 
    131 H131       35.4736   26.9817    6.9722 H         1 UNK         0.0545 
    132 H132       34.3167   29.7956    7.8583 H         1 UNK         0.3459 
    133 H133       33.9263   29.4505    9.5247 H         1 UNK         0.3459 
    134 H134       33.7078   25.2767    7.2853 H         1 UNK         0.0616 
    135 H135       32.5389   26.2882    6.4857 H         1 UNK         0.0616 
    136 H136       32.0823   26.2308    4.0703 H         1 UNK         0.0634 
    137 H137       31.8530   24.5649    4.5549 H         1 UNK         0.0634 
@<TRIPOS>BOND
     1    1    2 1    
     2    1   72 1    
     3    1   73 1    
     4    1   74 1    
     5    2    3 2    
     6    2    4 am   BACKBONE|DICT|INTERRES
     7    4    5 1    
     8    4   75 1    
     9    5    6 1    
    10    5   35 1    
    11    5   76 1    
    12    6    7 1    
    13    6   77 1    
    14    6   78 1    
    15    7    8 1    
    16    8    9 1    
    17    8   79 1    
    18    8   80 1    
    19    9   10 ar   
    20    9   14 ar   
    21   10   11 ar   
    22   10   81 1    
    23   11   12 ar   
    24   11   71 1    
    25   12   13 ar   
    26   12   82 1    
    27   13   14 ar   
    28   13   15 1    
    29   14   83 1    
    30   15   16 1    
    31   15   84 1    
    32   15   85 1    
    33   16   17 1    
    34   17   18 1    
    35   17   86 1    
    36   17   87 1    
    37   18   19 1    
    38   18   37 1    
    39   18   88 1    
    40   19   20 am   BACKBONE|DICT|INTERRES
    41   19   89 1    
    42   20   21 2    
    43   20   22 1    
    44   22   23 1    
    45   22   24 1    
    46   22   90 1    
    47   23   91 1    
    48   23   92 1    
    49   23   93 1    
    50   24   25 am   BACKBONE|DICT|INTERRES
    51   24   94 1    
    52   25   26 2    
    53   25   27 1    
    54   27   28 1    
    55   27   29 1    
    56   27   95 1    
    57   28   96 1    
    58   28   97 1    
    59   28   98 1    
    60   29   30 am   BACKBONE|DICT|INTERRES
    61   29   99 1    
    62   30   31 2    
    63   30   32 1    
    64   32   33 1    
    65   32   34 1    
    66   32  100 1    
    67   33  101 1    
    68   33  102 1    
    69   33  103 1    
    70   34   35 am   BACKBONE|DICT|INTERRES
    71   34  104 1    
    72   35   36 2    
    73   37   38 2    
    74   37   39 am   BACKBONE|DICT|INTERRES
    75   39   40 1    
    76   39  105 1    
    77   40   41 1    
    78   40   42 1    
    79   40  106 1    
    80   41  107 1    
    81   41  108 1    
    82   41  109 1    
    83   42   43 2    
    84   42   44 am   BACKBONE|DICT|INTERRES
    85   44   45 1    
    86   44  110 1    
    87   45   46 1    
    88   45   47 1    
    89   45  111 1    
    90   46  112 1    
    91   46  113 1    
    92   46  114 1    
    93   47   48 2    
    94   47   49 am   BACKBONE|DICT|INTERRES
    95   49   50 1    
    96   49  115 1    
    97   50   51 1    
    98   50   52 1    
    99   50  116 1    
   100   51  117 1    
   101   51  118 1    
   102   51  119 1    
   103   52   53 2    
   104   52   54 am   BACKBONE|DICT|INTERRES
   105   54   55 1    
   106   54  120 1    
   107   55   56 1    
   108   55   57 1    
   109   55  121 1    
   110   56  122 1    
   111   56  123 1    
   112   56  124 1    
   113   57   58 2    
   114   57   59 am   BACKBONE|DICT|INTERRES
   115   59   60 1    
   116   59  125 1    
   117   60   61 1    
   118   60   62 1    
   119   60  126 1    
   120   61  127 1    
   121   61  128 1    
   122   61  129 1    
   123   62   63 2    
   124   62   64 am   BACKBONE|DICT|INTERRES
   125   64   65 1    
   126   64  130 1    
   127   65   66 1    
   128   65   69 1    
   129   65  131 1    
   130   66   67 am   BACKBONE|DICT|INTERRES
   131   66   68 2    
   132   67  132 1    
   133   67  133 1    
   134   69   70 1    
   135   69  134 1    
   136   69  135 1    
   137   70   71 1    
   138   71  136 1    
   139   71  137 1    
@<TRIPOS>SUBSTRUCTURE
     1 UNK         1 GROUP             0       ****    0 ROOT    
