@<TRIPOS>MOLECULE
3R136
137   139    1
SMALL
USER_CHARGES


@<TRIPOS>ATOM
      1 CA         32.3463   21.9625    1.5755 C.3       0 UNK        -0.1979 
      2 C          31.1281   22.8199    1.2656 C.2       0 UNK         0.4864 
      3 O          31.0917   23.4711    0.2203 O.2       0 UNK        -0.5359 
      4 N          30.1410   22.8279    2.1713 N.am      1 UNK        -0.4318 
      5 CA         28.9136   23.6244    2.0685 C.3       1 UNK         0.0824 
      6 C6         28.1326   23.6960    3.4074 C.3       12 UNK        -0.0944 
      7 S7         29.1557   24.0191    4.8870 S.3       12 UNK        -0.2672 
      8 C8         29.6504   25.7601    4.6731 C.3       12 UNK         0.0333 
      9 C9         30.8850   25.9069    3.7897 C.ar      12 UNK        -0.0807 
     10 C10        32.1018   25.3294    4.1652 C.ar      12 UNK        -0.0894 
     11 C11        33.2300   25.4578    3.3495 C.ar      12 UNK        -0.0804 
     12 C12        33.1319   26.1710    2.1502 C.ar      12 UNK        -0.0824 
     13 C13        31.9317   26.7811    1.7709 C.ar      12 UNK        -0.0762 
     14 C14        30.8169   26.6449    2.6054 C.ar      12 UNK        -0.0782 
     15 C15        31.8891   27.5588    0.4527 C.3       12 UNK         0.0230 
     16 S16        30.5296   28.7708    0.2776 S.3       12 UNK        -0.2608 
     17 C17        29.2023   27.7558   -0.4582 C.3       12 UNK        -0.0989 
     18 CA         27.7846   28.3071   -0.1198 C.3       5 UNK         0.0716 
     19 N          26.8151   28.0446   -1.1838 N.am      5 UNK        -0.4135 
     20 C          26.6666   28.7975   -2.2829 C.2       4 UNK         0.5031 
     21 O          27.3171   29.8236   -2.4866 O.2       4 UNK        -0.5229 
     22 CA         25.6541   28.3475   -3.3570 C.3       4 UNK         0.0329 
     23 CB         26.3642   28.1195   -4.7035 C.3       4 UNK        -0.2001 
     24 N          24.9348   27.1225   -3.0035 N.am      4 UNK        -0.4303 
     25 C          23.7463   27.0675   -2.3865 C.2       3 UNK         0.5044 
     26 O          23.0851   28.0587   -2.0767 O.2       3 UNK        -0.5152 
     27 CA         23.2208   25.6607   -2.0285 C.3       3 UNK         0.0319 
     28 CB         22.2873   25.1379   -3.1320 C.3       3 UNK        -0.2001 
     29 N          24.2865   24.6768   -1.7842 N.am      3 UNK        -0.4354 
     30 C          25.2075   24.7967   -0.8184 C.2       2 UNK         0.4964 
     31 O          25.2130   25.7257   -0.0120 O.2       2 UNK        -0.5047 
     32 CA         26.3406   23.7649   -0.7972 C.3       2 UNK         0.0288 
     33 CB         27.1652   23.8170   -2.1003 C.3       2 UNK        -0.2113 
     34 N          27.2229   24.0280    0.3406 N.am      2 UNK        -0.4145 
     35 C          28.0022   23.1171    0.9317 C.2       1 UNK         0.5006 
     36 O          28.0051   21.9202    0.6265 O.2       1 UNK        -0.5103 
     37 C          27.1854   27.7650    1.1869 C.2       5 UNK         0.5055 
     38 O          27.5809   26.6940    1.6512 O.2       5 UNK        -0.5220 
     39 N          26.1597   28.4608    1.6969 N.am      6 UNK        -0.4450 
     40 CA         25.4558   28.0898    2.9278 C.3       6 UNK         0.0367 
     41 CB         24.0416   28.6922    2.9154 C.3       6 UNK        -0.1929 
     42 C          26.2293   28.5307    4.1808 C.2       6 UNK         0.5070 
     43 O          26.2843   27.7842    5.1583 O.2       6 UNK        -0.5237 
     44 N          26.8231   29.7299    4.1210 N.am      7 UNK        -0.4739 
     45 CA         27.7739   30.2385    5.1103 C.3       7 UNK         0.0276 
     46 CB         27.7779   31.7753    5.0540 C.3       7 UNK        -0.1927 
     47 C          29.1762   29.6863    4.8132 C.2       7 UNK         0.5013 
     48 O          29.4578   29.3489    3.6633 O.2       7 UNK        -0.5193 
     49 N          30.0320   29.6299    5.8434 N.am      8 UNK        -0.4253 
     50 CA         31.3903   29.0765    5.7709 C.3       8 UNK         0.0242 
     51 CB         32.0012   29.0275    7.1796 C.3       8 UNK        -0.2000 
     52 C          32.3302   29.8030    4.7936 C.2       8 UNK         0.4948 
     53 O          33.1832   29.1514    4.1915 O.2       8 UNK        -0.5275 
     54 N          32.1608   31.1279    4.6538 N.am      9 UNK        -0.4246 
     55 CA         32.9049   32.0144    3.7509 C.3       9 UNK         0.0261 
     56 CB         32.4404   31.7880    2.2929 C.3       9 UNK        -0.1959 
     57 C          34.4279   31.8835    3.9565 C.2       9 UNK         0.5033 
     58 O          34.9222   32.2563    5.0225 O.2       9 UNK        -0.5390 
     59 N          35.1326   31.3152    2.9682 N.am      10 UNK        -0.4215 
     60 CA         36.5659   31.0116    3.0076 C.3       10 UNK         0.0240 
     61 CB         37.0092   30.5020    1.6264 C.3       10 UNK        -0.1982 
     62 C          36.9719   30.0074    4.1044 C.2       10 UNK         0.4970 
     63 O          38.1180   30.0554    4.5537 O.2       10 UNK        -0.4916 
     64 N          36.0444   29.1362    4.5234 N.am      11 UNK        -0.4279 
     65 CA         36.2225   28.2045    5.6472 C.3       11 UNK         0.1003 
     66 C          35.9425   28.8489    7.0372 C.2       11 UNK         0.5709 
     67 N          35.5325   30.1102    7.1310 N.am      11 UNK        -0.7358 
     68 O          36.1166   28.1925    8.0612 O.2       11 UNK        -0.4999 
     69 C69        35.4116   26.8948    5.4467 C.3       12 UNK        -0.0954 
     70 S70        35.9057   26.0024    3.9344 S.3       12 UNK        -0.2268 
     71 C71        34.5464   24.8029    3.7494 C.3       12 UNK         0.0203 
     72 H72        32.4477   21.1714    0.8332 H         1 UNK         0.0888 
     73 H73        33.2479   22.5738    1.5496 H         1 UNK         0.0888 
     74 H74        32.2799   21.5006    2.5605 H         1 UNK         0.0888 
     75 H75        30.2231   22.2712    3.0090 H         1 UNK         0.3017 
     76 H76        29.2194   24.6352    1.8002 H         1 UNK         0.0873 
     77 H77        27.3579   24.4634    3.3514 H         1 UNK         0.0745 
     78 H78        27.6092   22.7551    3.5891 H         1 UNK         0.0745 
     79 H79        28.8097   26.3339    4.2783 H         1 UNK         0.0705 
     80 H80        29.8694   26.1778    5.6562 H         1 UNK         0.0705 
     81 H81        32.1629   24.7702    5.0886 H         1 UNK         0.1334 
     82 H82        34.0030   26.2620    1.5161 H         1 UNK         0.1417 
     83 H83        29.8856   27.1176    2.3405 H         1 UNK         0.1562 
     84 H84        31.8547   26.8509   -0.3766 H         1 UNK         0.0748 
     85 H85        32.8244   28.1104    0.3452 H         1 UNK         0.0748 
     86 H86        29.3190   26.7075   -0.1762 H         1 UNK         0.0940 
     87 H87        29.3660   27.7807   -1.5366 H         1 UNK         0.0940 
     88 H88        27.8575   29.3904    0.0032 H         1 UNK         0.0703 
     89 H89        26.1967   27.2568   -1.0216 H         1 UNK         0.3081 
     90 H90        24.9408   29.1642   -3.4866 H         1 UNK         0.0719 
     91 H91        27.1162   27.3323   -4.6364 H         1 UNK         0.0809 
     92 H92        25.6551   27.8415   -5.4836 H         1 UNK         0.0809 
     93 H93        26.8705   29.0254   -5.0399 H         1 UNK         0.0809 
     94 H94        25.3919   26.2509   -3.2282 H         1 UNK         0.2990 
     95 H95        22.6414   25.7559   -1.1076 H         1 UNK         0.0690 
     96 H96        21.8360   24.1857   -2.8526 H         1 UNK         0.0788 
     97 H97        22.8154   24.9967   -4.0759 H         1 UNK         0.0788 
     98 H98        21.4715   25.8385   -3.3169 H         1 UNK         0.0788 
     99 H99        24.3336   23.8892   -2.4155 H         1 UNK         0.2993 
    100 H100       25.8865   22.7779   -0.6847 H         1 UNK         0.0949 
    101 H101       27.6099   24.8012   -2.2551 H         1 UNK         0.0767 
    102 H102       27.9762   23.0884   -2.0846 H         1 UNK         0.0767 
    103 H103       26.5541   23.5890   -2.9742 H         1 UNK         0.0767 
    104 H104       27.1906   24.9778    0.7088 H         1 UNK         0.3013 
    105 H105       25.8491   29.2959    1.2218 H         1 UNK         0.3121 
    106 H106       25.3560   27.0021    2.9614 H         1 UNK         0.0774 
    107 H107       24.0623   29.7818    2.8734 H         1 UNK         0.0815 
    108 H108       23.4923   28.4110    3.8149 H         1 UNK         0.0815 
    109 H109       23.4676   28.3327    2.0609 H         1 UNK         0.0815 
    110 H110       26.7694   30.2425    3.2539 H         1 UNK         0.2987 
    111 H111       27.4669   29.9176    6.1085 H         1 UNK         0.0949 
    112 H112       28.1092   32.1436    4.0819 H         1 UNK         0.0806 
    113 H113       26.7844   32.1813    5.2456 H         1 UNK         0.0806 
    114 H114       28.4473   32.1943    5.8063 H         1 UNK         0.0806 
    115 H115       29.7216   29.9450    6.7515 H         1 UNK         0.3010 
    116 H116       31.3047   28.0524    5.4114 H         1 UNK         0.0829 
    117 H117       32.9785   28.5450    7.1598 H         1 UNK         0.0813 
    118 H118       32.1378   30.0253    7.5983 H         1 UNK         0.0813 
    119 H119       31.3775   28.4542    7.8656 H         1 UNK         0.0813 
    120 H120       31.4555   31.5716    5.2237 H         1 UNK         0.3038 
    121 H121       32.6457   33.0374    4.0274 H         1 UNK         0.0769 
    122 H122       32.6042   30.7623    1.9589 H         1 UNK         0.0811 
    123 H123       32.9557   32.4560    1.6014 H         1 UNK         0.0811 
    124 H124       31.3734   31.9882    2.1920 H         1 UNK         0.0811 
    125 H125       34.6264   31.0029    2.1525 H         1 UNK         0.3204 
    126 H126       37.0924   31.9457    3.2141 H         1 UNK         0.0748 
    127 H127       38.0806   30.2966    1.6114 H         1 UNK         0.0771 
    128 H128       36.4969   29.5779    1.3544 H         1 UNK         0.0771 
    129 H129       36.8122   31.2391    0.8476 H         1 UNK         0.0771 
    130 H130       35.1013   29.1770    4.1445 H         1 UNK         0.2980 
    131 H131       37.2747   27.9160    5.6793 H         1 UNK         0.0545 
    132 H132       35.3979   30.6843    6.3074 H         1 UNK         0.3459 
    133 H133       35.3720   30.5033    8.0442 H         1 UNK         0.3459 
    134 H134       34.3431   27.1094    5.4057 H         1 UNK         0.0616 
    135 H135       35.5567   26.2161    6.2889 H         1 UNK         0.0616 
    136 H136       34.8240   24.0784    2.9831 H         1 UNK         0.0634 
    137 H137       34.4398   24.2418    4.6791 H         1 UNK         0.0634 
@<TRIPOS>BOND
     1    1    2 1    
     2    1   72 1    
     3    1   73 1    
     4    1   74 1    
     5    2    3 2    
     6    2    4 am   BACKBONE|DICT|INTERRES
     7    4    5 1    
     8    4   75 1    
     9    5    6 1    
    10    5   35 1    
    11    5   76 1    
    12    6    7 1    
    13    6   77 1    
    14    6   78 1    
    15    7    8 1    
    16    8    9 1    
    17    8   79 1    
    18    8   80 1    
    19    9   10 ar   
    20    9   14 ar   
    21   10   11 ar   
    22   10   81 1    
    23   11   12 ar   
    24   11   71 1    
    25   12   13 ar   
    26   12   82 1    
    27   13   14 ar   
    28   13   15 1    
    29   14   83 1    
    30   15   16 1    
    31   15   84 1    
    32   15   85 1    
    33   16   17 1    
    34   17   18 1    
    35   17   86 1    
    36   17   87 1    
    37   18   19 1    
    38   18   37 1    
    39   18   88 1    
    40   19   20 am   BACKBONE|DICT|INTERRES
    41   19   89 1    
    42   20   21 2    
    43   20   22 1    
    44   22   23 1    
    45   22   24 1    
    46   22   90 1    
    47   23   91 1    
    48   23   92 1    
    49   23   93 1    
    50   24   25 am   BACKBONE|DICT|INTERRES
    51   24   94 1    
    52   25   26 2    
    53   25   27 1    
    54   27   28 1    
    55   27   29 1    
    56   27   95 1    
    57   28   96 1    
    58   28   97 1    
    59   28   98 1    
    60   29   30 am   BACKBONE|DICT|INTERRES
    61   29   99 1    
    62   30   31 2    
    63   30   32 1    
    64   32   33 1    
    65   32   34 1    
    66   32  100 1    
    67   33  101 1    
    68   33  102 1    
    69   33  103 1    
    70   34   35 am   BACKBONE|DICT|INTERRES
    71   34  104 1    
    72   35   36 2    
    73   37   38 2    
    74   37   39 am   BACKBONE|DICT|INTERRES
    75   39   40 1    
    76   39  105 1    
    77   40   41 1    
    78   40   42 1    
    79   40  106 1    
    80   41  107 1    
    81   41  108 1    
    82   41  109 1    
    83   42   43 2    
    84   42   44 am   BACKBONE|DICT|INTERRES
    85   44   45 1    
    86   44  110 1    
    87   45   46 1    
    88   45   47 1    
    89   45  111 1    
    90   46  112 1    
    91   46  113 1    
    92   46  114 1    
    93   47   48 2    
    94   47   49 am   BACKBONE|DICT|INTERRES
    95   49   50 1    
    96   49  115 1    
    97   50   51 1    
    98   50   52 1    
    99   50  116 1    
   100   51  117 1    
   101   51  118 1    
   102   51  119 1    
   103   52   53 2    
   104   52   54 am   BACKBONE|DICT|INTERRES
   105   54   55 1    
   106   54  120 1    
   107   55   56 1    
   108   55   57 1    
   109   55  121 1    
   110   56  122 1    
   111   56  123 1    
   112   56  124 1    
   113   57   58 2    
   114   57   59 am   BACKBONE|DICT|INTERRES
   115   59   60 1    
   116   59  125 1    
   117   60   61 1    
   118   60   62 1    
   119   60  126 1    
   120   61  127 1    
   121   61  128 1    
   122   61  129 1    
   123   62   63 2    
   124   62   64 am   BACKBONE|DICT|INTERRES
   125   64   65 1    
   126   64  130 1    
   127   65   66 1    
   128   65   69 1    
   129   65  131 1    
   130   66   67 am   BACKBONE|DICT|INTERRES
   131   66   68 2    
   132   67  132 1    
   133   67  133 1    
   134   69   70 1    
   135   69  134 1    
   136   69  135 1    
   137   70   71 1    
   138   71  136 1    
   139   71  137 1    
@<TRIPOS>SUBSTRUCTURE
     1 UNK         1 GROUP             0       ****    0 ROOT    
