@<TRIPOS>MOLECULE
3R136
137   139    1
SMALL
USER_CHARGES


@<TRIPOS>ATOM
      1 CA         24.2551   23.5649    4.0015 C.3       0 UNK        -0.1979 
      2 C          25.3883   22.5585    3.8634 C.2       0 UNK         0.4864 
      3 O          25.6056   21.7543    4.7710 O.2       0 UNK        -0.5359 
      4 N          26.1009   22.5937    2.7331 N.am      1 UNK        -0.4318 
      5 CA         27.2118   21.6933    2.4093 C.3       1 UNK         0.0824 
      6 C6         28.5255   21.9710    3.1904 C.3       12 UNK        -0.0944 
      7 S7         29.0246   23.7249    3.2321 S.3       12 UNK        -0.2672 
      8 C8         30.4813   23.7285    2.1469 C.3       12 UNK         0.0333 
      9 C9         31.0529   25.1311    1.9992 C.ar      12 UNK        -0.0807 
     10 C10        31.6724   25.7527    3.0874 C.ar      12 UNK        -0.0894 
     11 C11        32.2338   27.0253    2.9537 C.ar      12 UNK        -0.0804 
     12 C12        32.1693   27.6792    1.7199 C.ar      12 UNK        -0.0824 
     13 C13        31.5458   27.0749    0.6237 C.ar      12 UNK        -0.0762 
     14 C14        30.9896   25.7985    0.7719 C.ar      12 UNK        -0.0782 
     15 C15        31.5518   27.7803   -0.7296 C.3       12 UNK         0.0230 
     16 S16        29.9542   27.7291   -1.6060 S.3       12 UNK        -0.2608 
     17 C17        28.9383   28.9222   -0.6580 C.3       12 UNK        -0.0989 
     18 CA         27.5153   28.4028   -0.2942 C.3       5 UNK         0.0716 
     19 N          26.8139   27.8208   -1.4377 N.am      5 UNK        -0.4135 
     20 C          26.3377   28.5329   -2.4657 C.2       4 UNK         0.5031 
     21 O          26.2988   29.7647   -2.4763 O.2       4 UNK        -0.5229 
     22 CA         25.8621   27.7757   -3.7170 C.3       4 UNK         0.0329 
     23 CB         26.9362   27.8569   -4.8153 C.3       4 UNK        -0.2001 
     24 N          25.5475   26.3669   -3.4771 N.am      4 UNK        -0.4303 
     25 C          24.3477   25.9107   -3.0933 C.2       3 UNK         0.5044 
     26 O          23.3879   26.6357   -2.8293 O.2       3 UNK        -0.5152 
     27 CA         24.1860   24.3819   -3.0118 C.3       3 UNK         0.0319 
     28 CB         23.6880   23.8227   -4.3546 C.3       3 UNK        -0.2001 
     29 N          25.4267   23.6993   -2.6312 N.am      3 UNK        -0.4354 
     30 C          25.9217   23.7088   -1.3880 C.2       2 UNK         0.4964 
     31 O          25.3527   24.2479   -0.4343 O.2       2 UNK        -0.5047 
     32 CA         27.2711   23.0038   -1.1830 C.3       2 UNK         0.0288 
     33 CB         28.4294   23.8309   -1.7694 C.3       2 UNK        -0.2113 
     34 N          27.4782   22.8268    0.2528 N.am      2 UNK        -0.4145 
     35 C          27.4003   21.6492    0.8862 C.2       1 UNK         0.5006 
     36 O          27.3987   20.5589    0.3113 O.2       1 UNK        -0.5103 
     37 C          27.5554   27.3929    0.8607 C.2       5 UNK         0.5055 
     38 O          27.5794   26.1835    0.6234 O.2       5 UNK        -0.5220 
     39 N          27.5926   27.9197    2.0879 N.am      6 UNK        -0.4450 
     40 CA         27.8088   27.1825    3.3250 C.3       6 UNK         0.0367 
     41 CB         26.5609   26.3675    3.7137 C.3       6 UNK        -0.1929 
     42 C          28.1618   28.1957    4.4141 C.2       6 UNK         0.5070 
     43 O          27.5712   29.2780    4.4364 O.2       6 UNK        -0.5237 
     44 N          29.1115   27.8286    5.2868 N.am      7 UNK        -0.4739 
     45 CA         29.5878   28.5910    6.4544 C.3       7 UNK         0.0276 
     46 CB         28.5029   28.6068    7.5525 C.3       7 UNK        -0.1927 
     47 C          30.1171   30.0080    6.1328 C.2       7 UNK         0.5013 
     48 O          30.0542   30.8941    6.9879 O.2       7 UNK        -0.5193 
     49 N          30.6181   30.2012    4.9055 N.am      8 UNK        -0.4253 
     50 CA         31.1606   31.4662    4.4098 C.3       8 UNK         0.0242 
     51 CB         31.2781   31.3876    2.8779 C.3       8 UNK        -0.2000 
     52 C          32.5255   31.7981    5.0346 C.2       8 UNK         0.4948 
     53 O          33.2382   30.8972    5.4850 O.2       8 UNK        -0.5275 
     54 N          32.8982   33.0850    4.9749 N.am      9 UNK        -0.4246 
     55 CA         34.1661   33.6340    5.4774 C.3       9 UNK         0.0261 
     56 CB         34.1761   35.1575    5.2719 C.3       9 UNK        -0.1959 
     57 C          35.4313   33.0021    4.8651 C.2       9 UNK         0.5033 
     58 O          36.4820   33.0206    5.5073 O.2       9 UNK        -0.5390 
     59 N          35.3019   32.4109    3.6680 N.am      10 UNK        -0.4215 
     60 CA         36.3255   31.6091    2.9911 C.3       10 UNK         0.0240 
     61 CB         35.7827   31.1542    1.6259 C.3       10 UNK        -0.1982 
     62 C          36.8115   30.3915    3.8030 C.2       10 UNK         0.4970 
     63 O          37.9579   29.9791    3.6221 O.2       10 UNK        -0.4916 
     64 N          35.9549   29.8552    4.6837 N.am      11 UNK        -0.4279 
     65 CA         36.3012   28.7925    5.6394 C.3       11 UNK         0.1003 
     66 C          36.9391   29.3202    6.9594 C.2       11 UNK         0.5709 
     67 N          37.1177   30.6220    7.1571 N.am      11 UNK        -0.7358 
     68 O          37.3018   28.5254    7.8237 O.2       11 UNK        -0.4999 
     69 C69        35.0934   27.8597    5.9179 C.3       12 UNK        -0.0954 
     70 S70        34.5636   26.9519    4.4272 S.3       12 UNK        -0.2268 
     71 C71        32.9256   27.6799    4.1383 C.3       12 UNK         0.0203 
     72 H72        23.3124   23.0473    4.1769 H         1 UNK         0.0888 
     73 H73        24.4431   24.2272    4.8460 H         1 UNK         0.0888 
     74 H74        24.1426   24.1781    3.1072 H         1 UNK         0.0888 
     75 H75        25.8428   23.2433    2.0014 H         1 UNK         0.3017 
     76 H76        26.8891   20.6868    2.6863 H         1 UNK         0.0873 
     77 H77        28.3925   21.6575    4.2267 H         1 UNK         0.0745 
     78 H78        29.3429   21.3562    2.8087 H         1 UNK         0.0745 
     79 H79        31.2445   23.0686    2.5619 H         1 UNK         0.0705 
     80 H80        30.2085   23.3182    1.1735 H         1 UNK         0.0705 
     81 H81        31.7316   25.2365    4.0361 H         1 UNK         0.1334 
     82 H82        32.6295   28.6501    1.6047 H         1 UNK         0.1417 
     83 H83        30.5170   25.3203   -0.0746 H         1 UNK         0.1562 
     84 H84        32.3028   27.3007   -1.3586 H         1 UNK         0.0748 
     85 H85        31.8605   28.8220   -0.6271 H         1 UNK         0.0748 
     86 H86        28.8471   29.8233   -1.2661 H         1 UNK         0.0940 
     87 H87        29.4761   29.2371    0.2385 H         1 UNK         0.0940 
     88 H88        26.9211   29.2510    0.0535 H         1 UNK         0.0703 
     89 H89        26.7857   26.8103   -1.4464 H         1 UNK         0.3081 
     90 H90        24.9678   28.2840   -4.0847 H         1 UNK         0.0719 
     91 H91        27.8660   27.3757   -4.5079 H         1 UNK         0.0809 
     92 H92        26.5993   27.3829   -5.7375 H         1 UNK         0.0809 
     93 H93        27.1723   28.8948   -5.0549 H         1 UNK         0.0809 
     94 H94        26.2755   25.6965   -3.6747 H         1 UNK         0.2990 
     95 H95        23.4263   24.1698   -2.2558 H         1 UNK         0.0690 
     96 H96        23.5003   22.7506   -4.2927 H         1 UNK         0.0788 
     97 H97        24.4066   23.9930   -5.1574 H         1 UNK         0.0788 
     98 H98        22.7511   24.2970   -4.6504 H         1 UNK         0.0788 
     99 H99        25.9315   23.2193   -3.3633 H         1 UNK         0.2993 
    100 H100       27.2340   22.0388   -1.6932 H         1 UNK         0.0949 
    101 H101       29.3918   23.3650   -1.5575 H         1 UNK         0.0767 
    102 H102       28.3452   23.9141   -2.8534 H         1 UNK         0.0767 
    103 H103       28.4558   24.8433   -1.3688 H         1 UNK         0.0767 
    104 H104       27.4735   23.6854    0.7916 H         1 UNK         0.3013 
    105 H105       27.5479   28.9234    2.2159 H         1 UNK         0.3121 
    106 H106       28.6597   26.5179    3.1754 H         1 UNK         0.0774 
    107 H107       26.7256   25.8257    4.6457 H         1 UNK         0.0815 
    108 H108       25.6888   27.0072    3.8527 H         1 UNK         0.0815 
    109 H109       26.3172   25.6281    2.9519 H         1 UNK         0.0815 
    110 H110       29.5328   26.9174    5.1656 H         1 UNK         0.2987 
    111 H111       30.4442   28.0420    6.8493 H         1 UNK         0.0949 
    112 H112       27.6324   29.1896    7.2495 H         1 UNK         0.0806 
    113 H113       28.1648   27.5985    7.7915 H         1 UNK         0.0806 
    114 H114       28.8826   29.0449    8.4764 H         1 UNK         0.0806 
    115 H115       30.6351   29.4166    4.2728 H         1 UNK         0.3010 
    116 H116       30.4566   32.2601    4.6691 H         1 UNK         0.0829 
    117 H117       30.3288   31.1106    2.4184 H         1 UNK         0.0813 
    118 H118       31.5679   32.3504    2.4553 H         1 UNK         0.0813 
    119 H119       32.0273   30.6603    2.5674 H         1 UNK         0.0813 
    120 H120       32.2550   33.7520    4.5720 H         1 UNK         0.3038 
    121 H121       34.2002   33.4336    6.5504 H         1 UNK         0.0769 
    122 H122       34.1090   35.4236    4.2162 H         1 UNK         0.0811 
    123 H123       35.0955   35.5980    5.6607 H         1 UNK         0.0811 
    124 H124       33.3466   35.6352    5.7937 H         1 UNK         0.0811 
    125 H125       34.3999   32.4618    3.2191 H         1 UNK         0.3204 
    126 H126       37.1896   32.2552    2.8232 H         1 UNK         0.0748 
    127 H127       36.5319   30.5783    1.0805 H         1 UNK         0.0771 
    128 H128       34.9004   30.5212    1.7326 H         1 UNK         0.0771 
    129 H129       35.5139   32.0055    1.0000 H         1 UNK         0.0771 
    130 H130       35.0358   30.2678    4.8062 H         1 UNK         0.2980 
    131 H131       37.0769   28.1711    5.1880 H         1 UNK         0.0545 
    132 H132       36.8536   31.3084    6.4590 H         1 UNK         0.3459 
    133 H133       37.5404   30.9287    8.0184 H         1 UNK         0.3459 
    134 H134       34.2583   28.4273    6.3325 H         1 UNK         0.0616 
    135 H135       35.3498   27.1086    6.6671 H         1 UNK         0.0616 
    136 H136       32.3130   27.5652    5.0332 H         1 UNK         0.0634 
    137 H137       33.0422   28.7500    3.9683 H         1 UNK         0.0634 
@<TRIPOS>BOND
     1    1    2 1    
     2    1   72 1    
     3    1   73 1    
     4    1   74 1    
     5    2    3 2    
     6    2    4 am   BACKBONE|DICT|INTERRES
     7    4    5 1    
     8    4   75 1    
     9    5    6 1    
    10    5   35 1    
    11    5   76 1    
    12    6    7 1    
    13    6   77 1    
    14    6   78 1    
    15    7    8 1    
    16    8    9 1    
    17    8   79 1    
    18    8   80 1    
    19    9   10 ar   
    20    9   14 ar   
    21   10   11 ar   
    22   10   81 1    
    23   11   12 ar   
    24   11   71 1    
    25   12   13 ar   
    26   12   82 1    
    27   13   14 ar   
    28   13   15 1    
    29   14   83 1    
    30   15   16 1    
    31   15   84 1    
    32   15   85 1    
    33   16   17 1    
    34   17   18 1    
    35   17   86 1    
    36   17   87 1    
    37   18   19 1    
    38   18   37 1    
    39   18   88 1    
    40   19   20 am   BACKBONE|DICT|INTERRES
    41   19   89 1    
    42   20   21 2    
    43   20   22 1    
    44   22   23 1    
    45   22   24 1    
    46   22   90 1    
    47   23   91 1    
    48   23   92 1    
    49   23   93 1    
    50   24   25 am   BACKBONE|DICT|INTERRES
    51   24   94 1    
    52   25   26 2    
    53   25   27 1    
    54   27   28 1    
    55   27   29 1    
    56   27   95 1    
    57   28   96 1    
    58   28   97 1    
    59   28   98 1    
    60   29   30 am   BACKBONE|DICT|INTERRES
    61   29   99 1    
    62   30   31 2    
    63   30   32 1    
    64   32   33 1    
    65   32   34 1    
    66   32  100 1    
    67   33  101 1    
    68   33  102 1    
    69   33  103 1    
    70   34   35 am   BACKBONE|DICT|INTERRES
    71   34  104 1    
    72   35   36 2    
    73   37   38 2    
    74   37   39 am   BACKBONE|DICT|INTERRES
    75   39   40 1    
    76   39  105 1    
    77   40   41 1    
    78   40   42 1    
    79   40  106 1    
    80   41  107 1    
    81   41  108 1    
    82   41  109 1    
    83   42   43 2    
    84   42   44 am   BACKBONE|DICT|INTERRES
    85   44   45 1    
    86   44  110 1    
    87   45   46 1    
    88   45   47 1    
    89   45  111 1    
    90   46  112 1    
    91   46  113 1    
    92   46  114 1    
    93   47   48 2    
    94   47   49 am   BACKBONE|DICT|INTERRES
    95   49   50 1    
    96   49  115 1    
    97   50   51 1    
    98   50   52 1    
    99   50  116 1    
   100   51  117 1    
   101   51  118 1    
   102   51  119 1    
   103   52   53 2    
   104   52   54 am   BACKBONE|DICT|INTERRES
   105   54   55 1    
   106   54  120 1    
   107   55   56 1    
   108   55   57 1    
   109   55  121 1    
   110   56  122 1    
   111   56  123 1    
   112   56  124 1    
   113   57   58 2    
   114   57   59 am   BACKBONE|DICT|INTERRES
   115   59   60 1    
   116   59  125 1    
   117   60   61 1    
   118   60   62 1    
   119   60  126 1    
   120   61  127 1    
   121   61  128 1    
   122   61  129 1    
   123   62   63 2    
   124   62   64 am   BACKBONE|DICT|INTERRES
   125   64   65 1    
   126   64  130 1    
   127   65   66 1    
   128   65   69 1    
   129   65  131 1    
   130   66   67 am   BACKBONE|DICT|INTERRES
   131   66   68 2    
   132   67  132 1    
   133   67  133 1    
   134   69   70 1    
   135   69  134 1    
   136   69  135 1    
   137   70   71 1    
   138   71  136 1    
   139   71  137 1    
@<TRIPOS>SUBSTRUCTURE
     1 UNK         1 GROUP             0       ****    0 ROOT    
