@<TRIPOS>MOLECULE
3R136
137   139    1
SMALL
USER_CHARGES


@<TRIPOS>ATOM
      1 CA         28.9552   22.0736   -0.9069 C.3       0 UNK        -0.1979 
      2 C          28.9171   23.5116   -1.4007 C.2       0 UNK         0.4864 
      3 O          28.3590   23.7691   -2.4683 O.2       0 UNK        -0.5359 
      4 N          29.4881   24.4521   -0.6320 N.am      1 UNK        -0.4318 
      5 CA         29.5158   25.8922   -0.9171 C.3       1 UNK         0.0824 
      6 C6         30.3560   26.6651    0.1312 C.3       12 UNK        -0.0944 
      7 S7         32.1414   26.6689   -0.2480 S.3       12 UNK        -0.2672 
      8 C8         32.7295   25.0173    0.2537 C.3       12 UNK         0.0333 
      9 C9         32.3289   24.6374    1.6722 C.ar      12 UNK        -0.0807 
     10 C10        32.7536   25.4019    2.7645 C.ar      12 UNK        -0.0894 
     11 C11        32.3796   25.0458    4.0638 C.ar      12 UNK        -0.0804 
     12 C12        31.5662   23.9265    4.2643 C.ar      12 UNK        -0.0824 
     13 C13        31.1367   23.1553    3.1801 C.ar      12 UNK        -0.0762 
     14 C14        31.5414   23.5034    1.8903 C.ar      12 UNK        -0.0782 
     15 C15        30.2335   21.9481    3.3965 C.3       12 UNK         0.0230 
     16 S16        28.4984   22.3116    2.9645 S.3       12 UNK        -0.2608 
     17 C17        28.0986   23.6245    4.1646 C.3       12 UNK        -0.0989 
     18 CA         28.0290   25.0195    3.4791 C.3       5 UNK         0.0716 
     19 N          26.8594   25.1857    2.6026 N.am      5 UNK        -0.4135 
     20 C          25.5746   25.2022    2.9953 C.2       4 UNK         0.5031 
     21 O          25.2030   25.0180    4.1548 O.2       4 UNK        -0.5229 
     22 CA         24.5141   25.4948    1.9262 C.3       4 UNK         0.0329 
     23 CB         24.2599   27.0102    1.8455 C.3       4 UNK        -0.2001 
     24 N          24.9159   25.0173    0.6044 N.am      4 UNK        -0.4303 
     25 C          24.3702   23.9856   -0.0551 C.2       3 UNK         0.5044 
     26 O          23.5054   23.2526    0.4278 O.2       3 UNK        -0.5152 
     27 CA         24.8663   23.7201   -1.4974 C.3       3 UNK         0.0319 
     28 CB         23.7274   23.2715   -2.4372 C.3       3 UNK        -0.2001 
     29 N          25.6225   24.8361   -2.0851 N.am      3 UNK        -0.4354 
     30 C          25.1972   26.0950   -2.2914 C.2       2 UNK         0.4964 
     31 O          24.0211   26.4437   -2.1813 O.2       2 UNK        -0.5047 
     32 CA         26.2725   27.1573   -2.6125 C.3       2 UNK         0.0288 
     33 CB         25.9113   28.5368   -2.0233 C.3       2 UNK        -0.2113 
     34 N          27.6362   26.7729   -2.2132 N.am      2 UNK        -0.4145 
     35 C          28.0750   26.4319   -0.9898 C.2       1 UNK         0.5006 
     36 O          27.3845   26.4443    0.0347 O.2       1 UNK        -0.5103 
     37 C          28.1623   26.1993    4.4693 C.2       5 UNK         0.5055 
     38 O          28.4366   25.9914    5.6523 O.2       5 UNK        -0.5220 
     39 N          27.9568   27.4204    3.9565 N.am      6 UNK        -0.4450 
     40 CA         28.0659   28.6891    4.6782 C.3       6 UNK         0.0367 
     41 CB         26.9404   28.8260    5.7290 C.3       6 UNK        -0.1929 
     42 C          28.0619   29.8414    3.6604 C.2       6 UNK         0.5070 
     43 O          27.2988   30.7960    3.8163 O.2       6 UNK        -0.5237 
     44 N          28.8718   29.7139    2.6002 N.am      7 UNK        -0.4739 
     45 CA         28.8732   30.6336    1.4584 C.3       7 UNK         0.0276 
     46 CB         27.8060   30.1959    0.4366 C.3       7 UNK        -0.1927 
     47 C          30.2751   30.7724    0.8459 C.2       7 UNK         0.5013 
     48 O          30.4219   30.7254   -0.3765 O.2       7 UNK        -0.5193 
     49 N          31.2827   30.9506    1.7051 N.am      8 UNK        -0.4253 
     50 CA         32.6634   31.2460    1.3334 C.3       8 UNK         0.0242 
     51 CB         33.4245   29.9462    1.0184 C.3       8 UNK        -0.2000 
     52 C          33.3172   31.9969    2.4936 C.2       8 UNK         0.4948 
     53 O          32.9257   31.7842    3.6432 O.2       8 UNK        -0.5275 
     54 N          34.3257   32.8241    2.1866 N.am      9 UNK        -0.4246 
     55 CA         35.0736   33.6302    3.1620 C.3       9 UNK         0.0261 
     56 CB         36.0132   34.5910    2.4149 C.3       9 UNK        -0.1959 
     57 C          35.8615   32.7992    4.1925 C.2       9 UNK         0.5033 
     58 O          36.0827   33.2716    5.3080 O.2       9 UNK        -0.5390 
     59 N          36.2533   31.5771    3.8079 N.am      10 UNK        -0.4215 
     60 CA         36.8794   30.5844    4.6834 C.3       10 UNK         0.0240 
     61 CB         37.6642   29.5853    3.8160 C.3       10 UNK        -0.1982 
     62 C          35.8696   29.8383    5.5783 C.2       10 UNK         0.4970 
     63 O          36.2989   29.1760    6.5241 O.2       10 UNK        -0.4916 
     64 N          34.5712   29.9291    5.2610 N.am      11 UNK        -0.4279 
     65 CA         33.4674   29.2987    5.9926 C.3       11 UNK         0.1003 
     66 C          32.7927   30.2832    6.9929 C.2       11 UNK         0.5709 
     67 N          31.7078   29.8724    7.6350 N.am      11 UNK        -0.7358 
     68 O          33.2476   31.4037    7.2177 O.2       11 UNK        -0.4999 
     69 C69        32.4720   28.6313    4.9984 C.3       12 UNK        -0.0954 
     70 S70        31.6820   27.1547    5.7152 S.3       12 UNK        -0.2268 
     71 C71        32.8642   25.8499    5.2599 C.3       12 UNK         0.0203 
     72 H72        29.3214   21.9971    0.1147 H         1 UNK         0.0888 
     73 H73        27.9551   21.6419   -0.9345 H         1 UNK         0.0888 
     74 H74        29.6018   21.4749   -1.5479 H         1 UNK         0.0888 
     75 H75        29.8966   24.1863    0.2507 H         1 UNK         0.3017 
     76 H76        29.9765   26.0266   -1.8983 H         1 UNK         0.0873 
     77 H77        30.1812   26.2973    1.1428 H         1 UNK         0.0745 
     78 H78        30.0671   27.7177    0.1524 H         1 UNK         0.0745 
     79 H79        32.3653   24.2841   -0.4673 H         1 UNK         0.0705 
     80 H80        33.8175   24.9984    0.1786 H         1 UNK         0.0705 
     81 H81        33.3746   26.2719    2.6006 H         1 UNK         0.1334 
     82 H82        31.2679   23.6581    5.2687 H         1 UNK         0.1417 
     83 H83        31.2417   22.8846    1.0575 H         1 UNK         0.1562 
     84 H84        30.2852   21.6060    4.4314 H         1 UNK         0.0748 
     85 H85        30.5836   21.1156    2.7844 H         1 UNK         0.0748 
     86 H86        28.8476   23.6044    4.9567 H         1 UNK         0.0940 
     87 H87        27.1582   23.3781    4.6581 H         1 UNK         0.0940 
     88 H88        28.9032   25.1083    2.8330 H         1 UNK         0.0703 
     89 H89        27.0629   25.4075    1.6333 H         1 UNK         0.3081 
     90 H90        23.5865   25.0104    2.2383 H         1 UNK         0.0719 
     91 H91        23.9462   27.4071    2.8121 H         1 UNK         0.0809 
     92 H92        25.1537   27.5570    1.5414 H         1 UNK         0.0809 
     93 H93        23.4708   27.2395    1.1289 H         1 UNK         0.0809 
     94 H94        25.6436   25.5519    0.1415 H         1 UNK         0.2990 
     95 H95        25.5725   22.8924   -1.4199 H         1 UNK         0.0690 
     96 H96        24.0970   23.0797   -3.4444 H         1 UNK         0.0788 
     97 H97        22.9384   24.0209   -2.5055 H         1 UNK         0.0788 
     98 H98        23.2669   22.3487   -2.0823 H         1 UNK         0.0788 
     99 H99        26.6064   24.6381   -2.2506 H         1 UNK         0.2993 
    100 H100       26.2849   27.2515   -3.6994 H         1 UNK         0.0949 
    101 H101       25.7903   28.4920   -0.9406 H         1 UNK         0.0767 
    102 H102       26.6775   29.2782   -2.2493 H         1 UNK         0.0767 
    103 H103       24.9736   28.9086   -2.4382 H         1 UNK         0.0767 
    104 H104       28.2843   26.6686   -2.9824 H         1 UNK         0.3013 
    105 H105       27.7081   27.4998    2.9796 H         1 UNK         0.3121 
    106 H106       29.0285   28.7172    5.1924 H         1 UNK         0.0774 
    107 H107       25.9539   28.7717    5.2672 H         1 UNK         0.0815 
    108 H108       26.9964   28.0471    6.4887 H         1 UNK         0.0815 
    109 H109       27.0064   29.7806    6.2525 H         1 UNK         0.0815 
    110 H110       29.5153   28.9355    2.5527 H         1 UNK         0.2987 
    111 H111       28.6111   31.6368    1.8028 H         1 UNK         0.0949 
    112 H112       26.8130   30.1603    0.8847 H         1 UNK         0.0806 
    113 H113       27.7544   30.8910   -0.4023 H         1 UNK         0.0806 
    114 H114       28.0265   29.2096    0.0315 H         1 UNK         0.0806 
    115 H115       31.0953   31.0224    2.6981 H         1 UNK         0.3010 
    116 H116       32.6698   31.8963    0.4556 H         1 UNK         0.0829 
    117 H117       33.3788   29.2376    1.8457 H         1 UNK         0.0813 
    118 H118       34.4766   30.1414    0.8081 H         1 UNK         0.0813 
    119 H119       33.0094   29.4582    0.1373 H         1 UNK         0.0813 
    120 H120       34.5874   32.9339    1.2166 H         1 UNK         0.3038 
    121 H121       34.3483   34.2273    3.7192 H         1 UNK         0.0769 
    122 H122       35.4582   35.2556    1.7526 H         1 UNK         0.0811 
    123 H123       36.7486   34.0536    1.8148 H         1 UNK         0.0811 
    124 H124       36.5631   35.2218    3.1151 H         1 UNK         0.0811 
    125 H125       36.0490   31.2874    2.8629 H         1 UNK         0.3204 
    126 H126       37.5864   31.0930    5.3425 H         1 UNK         0.0748 
    127 H127       37.0097   29.0373    3.1367 H         1 UNK         0.0771 
    128 H128       38.4240   30.0895    3.2184 H         1 UNK         0.0771 
    129 H129       38.1791   28.8497    4.4357 H         1 UNK         0.0771 
    130 H130       34.2786   30.5873    4.5483 H         1 UNK         0.2980 
    131 H131       33.8952   28.5112    6.6154 H         1 UNK         0.0545 
    132 H132       31.3304   28.9533    7.4583 H         1 UNK         0.3459 
    133 H133       31.2605   30.4879    8.2956 H         1 UNK         0.3459 
    134 H134       32.9824   28.3217    4.0854 H         1 UNK         0.0616 
    135 H135       31.7006   29.3334    4.6772 H         1 UNK         0.0616 
    136 H136       33.8481   26.2781    5.0619 H         1 UNK         0.0634 
    137 H137       32.9942   25.1886    6.1178 H         1 UNK         0.0634 
@<TRIPOS>BOND
     1    1    2 1    
     2    1   72 1    
     3    1   73 1    
     4    1   74 1    
     5    2    3 2    
     6    2    4 am   BACKBONE|DICT|INTERRES
     7    4    5 1    
     8    4   75 1    
     9    5    6 1    
    10    5   35 1    
    11    5   76 1    
    12    6    7 1    
    13    6   77 1    
    14    6   78 1    
    15    7    8 1    
    16    8    9 1    
    17    8   79 1    
    18    8   80 1    
    19    9   10 ar   
    20    9   14 ar   
    21   10   11 ar   
    22   10   81 1    
    23   11   12 ar   
    24   11   71 1    
    25   12   13 ar   
    26   12   82 1    
    27   13   14 ar   
    28   13   15 1    
    29   14   83 1    
    30   15   16 1    
    31   15   84 1    
    32   15   85 1    
    33   16   17 1    
    34   17   18 1    
    35   17   86 1    
    36   17   87 1    
    37   18   19 1    
    38   18   37 1    
    39   18   88 1    
    40   19   20 am   BACKBONE|DICT|INTERRES
    41   19   89 1    
    42   20   21 2    
    43   20   22 1    
    44   22   23 1    
    45   22   24 1    
    46   22   90 1    
    47   23   91 1    
    48   23   92 1    
    49   23   93 1    
    50   24   25 am   BACKBONE|DICT|INTERRES
    51   24   94 1    
    52   25   26 2    
    53   25   27 1    
    54   27   28 1    
    55   27   29 1    
    56   27   95 1    
    57   28   96 1    
    58   28   97 1    
    59   28   98 1    
    60   29   30 am   BACKBONE|DICT|INTERRES
    61   29   99 1    
    62   30   31 2    
    63   30   32 1    
    64   32   33 1    
    65   32   34 1    
    66   32  100 1    
    67   33  101 1    
    68   33  102 1    
    69   33  103 1    
    70   34   35 am   BACKBONE|DICT|INTERRES
    71   34  104 1    
    72   35   36 2    
    73   37   38 2    
    74   37   39 am   BACKBONE|DICT|INTERRES
    75   39   40 1    
    76   39  105 1    
    77   40   41 1    
    78   40   42 1    
    79   40  106 1    
    80   41  107 1    
    81   41  108 1    
    82   41  109 1    
    83   42   43 2    
    84   42   44 am   BACKBONE|DICT|INTERRES
    85   44   45 1    
    86   44  110 1    
    87   45   46 1    
    88   45   47 1    
    89   45  111 1    
    90   46  112 1    
    91   46  113 1    
    92   46  114 1    
    93   47   48 2    
    94   47   49 am   BACKBONE|DICT|INTERRES
    95   49   50 1    
    96   49  115 1    
    97   50   51 1    
    98   50   52 1    
    99   50  116 1    
   100   51  117 1    
   101   51  118 1    
   102   51  119 1    
   103   52   53 2    
   104   52   54 am   BACKBONE|DICT|INTERRES
   105   54   55 1    
   106   54  120 1    
   107   55   56 1    
   108   55   57 1    
   109   55  121 1    
   110   56  122 1    
   111   56  123 1    
   112   56  124 1    
   113   57   58 2    
   114   57   59 am   BACKBONE|DICT|INTERRES
   115   59   60 1    
   116   59  125 1    
   117   60   61 1    
   118   60   62 1    
   119   60  126 1    
   120   61  127 1    
   121   61  128 1    
   122   61  129 1    
   123   62   63 2    
   124   62   64 am   BACKBONE|DICT|INTERRES
   125   64   65 1    
   126   64  130 1    
   127   65   66 1    
   128   65   69 1    
   129   65  131 1    
   130   66   67 am   BACKBONE|DICT|INTERRES
   131   66   68 2    
   132   67  132 1    
   133   67  133 1    
   134   69   70 1    
   135   69  134 1    
   136   69  135 1    
   137   70   71 1    
   138   71  136 1    
   139   71  137 1    
@<TRIPOS>SUBSTRUCTURE
     1 UNK         1 GROUP             0       ****    0 ROOT    
