@<TRIPOS>MOLECULE
3R136
137   139    1
SMALL
USER_CHARGES


@<TRIPOS>ATOM
      1 CA         29.5514   18.7146    4.3523 C.3       0 UNK        -0.1979 
      2 C          28.3926   19.6413    4.0146 C.2       0 UNK         0.4864 
      3 O          27.4771   19.7968    4.8248 O.2       0 UNK        -0.5359 
      4 N          28.4203   20.2491    2.8222 N.am      1 UNK        -0.4318 
      5 CA         27.4400   21.2339    2.3562 C.3       1 UNK         0.0824 
      6 C6         27.4759   21.3823    0.8123 C.3       12 UNK        -0.0944 
      7 S7         29.1188   21.8210    0.1382 S.3       12 UNK        -0.2672 
      8 C8         28.8418   23.5576   -0.3143 C.3       12 UNK         0.0333 
      9 C9         30.1106   24.3786   -0.1638 C.ar      12 UNK        -0.0807 
     10 C10        30.3716   25.0295    1.0450 C.ar      12 UNK        -0.0894 
     11 C11        31.5457   25.7657    1.2168 C.ar      12 UNK        -0.0804 
     12 C12        32.4542   25.8602    0.1589 C.ar      12 UNK        -0.0824 
     13 C13        32.1903   25.2421   -1.0668 C.ar      12 UNK        -0.0762 
     14 C14        31.0220   24.4891   -1.2190 C.ar      12 UNK        -0.0782 
     15 C15        33.1853   25.3673   -2.2132 C.3       12 UNK         0.0230 
     16 S16        32.6283   26.5276   -3.5053 S.3       12 UNK        -0.2608 
     17 C17        32.5762   28.1293   -2.6233 C.3       12 UNK        -0.0989 
     18 CA         31.2391   28.8806   -2.8455 C.3       5 UNK         0.0716 
     19 N          30.0611   28.0523   -2.5438 N.am      5 UNK        -0.4135 
     20 C          28.8088   28.3310   -2.9392 C.2       4 UNK         0.5031 
     21 O          28.4954   29.3255   -3.5940 O.2       4 UNK        -0.5229 
     22 CA         27.7222   27.3338   -2.5224 C.3       4 UNK         0.0329 
     23 CB         28.0168   25.9383   -3.1142 C.3       4 UNK        -0.2001 
     24 N          27.6126   27.3522   -1.0614 N.am      4 UNK        -0.4303 
     25 C          26.8569   26.5771   -0.2756 C.2       3 UNK         0.5044 
     26 O          26.1738   25.6237   -0.6561 O.2       3 UNK        -0.5152 
     27 CA         26.8235   26.9793    1.2006 C.3       3 UNK         0.0319 
     28 CB         25.7167   28.0262    1.4406 C.3       3 UNK        -0.2001 
     29 N          26.5874   25.8157    2.0498 N.am      3 UNK        -0.4354 
     30 C          26.9043   25.7640    3.3499 C.2       2 UNK         0.4964 
     31 O          27.4889   26.6712    3.9464 O.2       2 UNK        -0.5047 
     32 CA         26.4716   24.5153    4.1344 C.3       2 UNK         0.0288 
     33 CB         25.0624   24.7178    4.7153 C.3       2 UNK        -0.2113 
     34 N          26.4976   23.2788    3.3463 N.am      2 UNK        -0.4145 
     35 C          27.6140   22.5807    3.0964 C.2       1 UNK         0.5006 
     36 O          28.7393   22.9556    3.4374 O.2       1 UNK        -0.5103 
     37 C          31.2049   30.2050   -2.0545 C.2       5 UNK         0.5055 
     38 O          31.5113   31.2645   -2.6033 O.2       5 UNK        -0.5220 
     39 N          30.7709   30.1076   -0.7957 N.am      6 UNK        -0.4450 
     40 CA         30.2587   31.1862    0.0395 C.3       6 UNK         0.0367 
     41 CB         31.3905   31.8638    0.8357 C.3       6 UNK        -0.1929 
     42 C          29.1621   30.5356    0.8972 C.2       6 UNK         0.5070 
     43 O          28.4700   29.6520    0.3839 O.2       6 UNK        -0.5237 
     44 N          29.0290   30.9239    2.1696 N.am      7 UNK        -0.4739 
     45 CA         28.1281   30.2809    3.1233 C.3       7 UNK         0.0276 
     46 CB         26.8069   31.0643    3.2027 C.3       7 UNK        -0.1927 
     47 C          28.7991   30.1968    4.4954 C.2       7 UNK         0.5013 
     48 O          29.3290   31.2068    4.9669 O.2       7 UNK        -0.5193 
     49 N          28.7239   29.0112    5.1182 N.am      8 UNK        -0.4253 
     50 CA         29.1569   28.6922    6.4825 C.3       8 UNK         0.0242 
     51 CB         28.0834   29.1720    7.4856 C.3       8 UNK        -0.2000 
     52 C          30.5817   29.1926    6.7957 C.2       8 UNK         0.4948 
     53 O          31.5284   28.7831    6.1225 O.2       8 UNK        -0.5275 
     54 N          30.7126   30.0884    7.7833 N.am      9 UNK        -0.4246 
     55 CA         31.9711   30.6737    8.2545 C.3       9 UNK         0.0261 
     56 CB         31.6819   31.5524    9.4829 C.3       9 UNK        -0.1959 
     57 C          32.7636   31.4704    7.1995 C.2       9 UNK         0.5033 
     58 O          33.9591   31.6868    7.4039 O.2       9 UNK        -0.5390 
     59 N          32.1180   31.8851    6.0985 N.am      10 UNK        -0.4215 
     60 CA         32.7765   32.5638    4.9797 C.3       10 UNK         0.0240 
     61 CB         31.7359   33.3542    4.1712 C.3       10 UNK        -0.1982 
     62 C          33.5807   31.6136    4.0703 C.2       10 UNK         0.4970 
     63 O          34.3794   32.1094    3.2742 O.2       10 UNK        -0.4916 
     64 N          33.3763   30.2940    4.1898 N.am      11 UNK        -0.4279 
     65 CA         34.1114   29.2644    3.4372 C.3       11 UNK         0.1003 
     66 C          34.6157   28.0791    4.3054 C.2       11 UNK         0.5709 
     67 N          34.0406   27.7982    5.4672 N.am      11 UNK        -0.7358 
     68 O          35.5730   27.4100    3.9239 O.2       11 UNK        -0.4999 
     69 C69        33.3521   28.7874    2.1693 C.3       12 UNK        -0.0954 
     70 S70        31.6393   28.2306    2.4896 S.3       12 UNK        -0.2268 
     71 C71        31.8392   26.4242    2.5570 C.3       12 UNK         0.0203 
     72 H72        30.2796   18.6617    3.5430 H         1 UNK         0.0888 
     73 H73        30.0642   19.0665    5.2470 H         1 UNK         0.0888 
     74 H74        29.1833   17.7070    4.5434 H         1 UNK         0.0888 
     75 H75        29.2138   20.1185    2.2106 H         1 UNK         0.3017 
     76 H76        26.4519   20.8481    2.6179 H         1 UNK         0.0873 
     77 H77        26.7230   22.0969    0.4746 H         1 UNK         0.0745 
     78 H78        27.1863   20.4331    0.3586 H         1 UNK         0.0745 
     79 H79        28.4601   23.6058   -1.3342 H         1 UNK         0.0705 
     80 H80        28.0688   23.9797    0.3262 H         1 UNK         0.0705 
     81 H81        29.6687   24.9425    1.8626 H         1 UNK         0.1334 
     82 H82        33.3722   26.4135    0.2852 H         1 UNK         0.1417 
     83 H83        30.8252   23.9870   -2.1568 H         1 UNK         0.1562 
     84 H84        33.3377   24.3862   -2.6655 H         1 UNK         0.0748 
     85 H85        34.1627   25.6848   -1.8460 H         1 UNK         0.0748 
     86 H86        33.4096   28.7355   -2.9838 H         1 UNK         0.0940 
     87 H87        32.7607   27.9777   -1.5598 H         1 UNK         0.0940 
     88 H88        31.1844   29.1419   -3.9048 H         1 UNK         0.0703 
     89 H89        30.2340   27.1971   -2.0352 H         1 UNK         0.3081 
     90 H90        26.7708   27.6852   -2.9261 H         1 UNK         0.0719 
     91 H91        28.9080   25.4918   -2.6809 H         1 UNK         0.0809 
     92 H92        27.1868   25.2480   -2.9693 H         1 UNK         0.0809 
     93 H93        28.1817   26.0026   -4.1907 H         1 UNK         0.0809 
     94 H94        28.0482   28.1593   -0.6134 H         1 UNK         0.2990 
     95 H95        27.7997   27.3946    1.4560 H         1 UNK         0.0690 
     96 H96        25.6759   28.3401    2.4831 H         1 UNK         0.0788 
     97 H97        24.7337   27.6355    1.1749 H         1 UNK         0.0788 
     98 H98        25.8847   28.9206    0.8397 H         1 UNK         0.0788 
     99 H99        26.1247   25.0373    1.5994 H         1 UNK         0.2993 
    100 H100       27.1646   24.4064    4.9723 H         1 UNK         0.0949 
    101 H101       24.7718   23.8818    5.3521 H         1 UNK         0.0767 
    102 H102       25.0195   25.6194    5.3285 H         1 UNK         0.0767 
    103 H103       24.3111   24.8215    3.9313 H         1 UNK         0.0767 
    104 H104       25.6063   22.9133    3.0422 H         1 UNK         0.3013 
    105 H105       30.5025   29.1912   -0.4624 H         1 UNK         0.3121 
    106 H106       29.7755   31.9293   -0.5982 H         1 UNK         0.0774 
    107 H107       31.0470   32.8032    1.2684 H         1 UNK         0.0815 
    108 H108       31.7514   31.2361    1.6486 H         1 UNK         0.0815 
    109 H109       32.2409   32.1021    0.1969 H         1 UNK         0.0815 
    110 H110       29.6499   31.6195    2.5587 H         1 UNK         0.2987 
    111 H111       27.9148   29.2621    2.8000 H         1 UNK         0.0949 
    112 H112       26.9684   32.0926    3.5285 H         1 UNK         0.0806 
    113 H113       26.3057   31.0942    2.2353 H         1 UNK         0.0806 
    114 H114       26.1199   30.5997    3.9111 H         1 UNK         0.0806 
    115 H115       28.2983   28.2310    4.6199 H         1 UNK         0.3010 
    116 H116       29.2032   27.6037    6.5410 H         1 UNK         0.0829 
    117 H117       27.1179   28.7156    7.2658 H         1 UNK         0.0813 
    118 H118       28.3371   28.8906    8.5086 H         1 UNK         0.0813 
    119 H119       27.9452   30.2538    7.4545 H         1 UNK         0.0813 
    120 H120       29.8733   30.3906    8.2563 H         1 UNK         0.3038 
    121 H121       32.6113   29.8472    8.5698 H         1 UNK         0.0769 
    122 H122       31.0197   32.3835    9.2371 H         1 UNK         0.0811 
    123 H123       32.6023   31.9781    9.8855 H         1 UNK         0.0811 
    124 H124       31.2183   30.9769   10.2845 H         1 UNK         0.0811 
    125 H125       31.1367   31.6514    5.9773 H         1 UNK         0.3204 
    126 H126       33.4868   33.2854    5.3892 H         1 UNK         0.0748 
    127 H127       31.1959   34.0609    4.8016 H         1 UNK         0.0771 
    128 H128       32.2132   33.9288    3.3762 H         1 UNK         0.0771 
    129 H129       31.0055   32.6970    3.7041 H         1 UNK         0.0771 
    130 H130       32.6987   29.9476    4.8591 H         1 UNK         0.2980 
    131 H131       35.0384   29.7166    3.0794 H         1 UNK         0.0545 
    132 H132       33.1709   28.2454    5.7497 H         1 UNK         0.3459 
    133 H133       34.4030   27.0341    6.0135 H         1 UNK         0.3459 
    134 H134       33.3064   29.6032    1.4485 H         1 UNK         0.0616 
    135 H135       33.9174   28.0043    1.6665 H         1 UNK         0.0616 
    136 H136       31.1637   26.0398    3.3231 H         1 UNK         0.0634 
    137 H137       32.8449   26.1618    2.8864 H         1 UNK         0.0634 
@<TRIPOS>BOND
     1    1    2 1    
     2    1   72 1    
     3    1   73 1    
     4    1   74 1    
     5    2    3 2    
     6    2    4 am   BACKBONE|DICT|INTERRES
     7    4    5 1    
     8    4   75 1    
     9    5    6 1    
    10    5   35 1    
    11    5   76 1    
    12    6    7 1    
    13    6   77 1    
    14    6   78 1    
    15    7    8 1    
    16    8    9 1    
    17    8   79 1    
    18    8   80 1    
    19    9   10 ar   
    20    9   14 ar   
    21   10   11 ar   
    22   10   81 1    
    23   11   12 ar   
    24   11   71 1    
    25   12   13 ar   
    26   12   82 1    
    27   13   14 ar   
    28   13   15 1    
    29   14   83 1    
    30   15   16 1    
    31   15   84 1    
    32   15   85 1    
    33   16   17 1    
    34   17   18 1    
    35   17   86 1    
    36   17   87 1    
    37   18   19 1    
    38   18   37 1    
    39   18   88 1    
    40   19   20 am   BACKBONE|DICT|INTERRES
    41   19   89 1    
    42   20   21 2    
    43   20   22 1    
    44   22   23 1    
    45   22   24 1    
    46   22   90 1    
    47   23   91 1    
    48   23   92 1    
    49   23   93 1    
    50   24   25 am   BACKBONE|DICT|INTERRES
    51   24   94 1    
    52   25   26 2    
    53   25   27 1    
    54   27   28 1    
    55   27   29 1    
    56   27   95 1    
    57   28   96 1    
    58   28   97 1    
    59   28   98 1    
    60   29   30 am   BACKBONE|DICT|INTERRES
    61   29   99 1    
    62   30   31 2    
    63   30   32 1    
    64   32   33 1    
    65   32   34 1    
    66   32  100 1    
    67   33  101 1    
    68   33  102 1    
    69   33  103 1    
    70   34   35 am   BACKBONE|DICT|INTERRES
    71   34  104 1    
    72   35   36 2    
    73   37   38 2    
    74   37   39 am   BACKBONE|DICT|INTERRES
    75   39   40 1    
    76   39  105 1    
    77   40   41 1    
    78   40   42 1    
    79   40  106 1    
    80   41  107 1    
    81   41  108 1    
    82   41  109 1    
    83   42   43 2    
    84   42   44 am   BACKBONE|DICT|INTERRES
    85   44   45 1    
    86   44  110 1    
    87   45   46 1    
    88   45   47 1    
    89   45  111 1    
    90   46  112 1    
    91   46  113 1    
    92   46  114 1    
    93   47   48 2    
    94   47   49 am   BACKBONE|DICT|INTERRES
    95   49   50 1    
    96   49  115 1    
    97   50   51 1    
    98   50   52 1    
    99   50  116 1    
   100   51  117 1    
   101   51  118 1    
   102   51  119 1    
   103   52   53 2    
   104   52   54 am   BACKBONE|DICT|INTERRES
   105   54   55 1    
   106   54  120 1    
   107   55   56 1    
   108   55   57 1    
   109   55  121 1    
   110   56  122 1    
   111   56  123 1    
   112   56  124 1    
   113   57   58 2    
   114   57   59 am   BACKBONE|DICT|INTERRES
   115   59   60 1    
   116   59  125 1    
   117   60   61 1    
   118   60   62 1    
   119   60  126 1    
   120   61  127 1    
   121   61  128 1    
   122   61  129 1    
   123   62   63 2    
   124   62   64 am   BACKBONE|DICT|INTERRES
   125   64   65 1    
   126   64  130 1    
   127   65   66 1    
   128   65   69 1    
   129   65  131 1    
   130   66   67 am   BACKBONE|DICT|INTERRES
   131   66   68 2    
   132   67  132 1    
   133   67  133 1    
   134   69   70 1    
   135   69  134 1    
   136   69  135 1    
   137   70   71 1    
   138   71  136 1    
   139   71  137 1    
@<TRIPOS>SUBSTRUCTURE
     1 UNK         1 GROUP             0       ****    0 ROOT    
