@<TRIPOS>MOLECULE
3R136
137   139    1
SMALL
USER_CHARGES


@<TRIPOS>ATOM
      1 CA         32.8738   23.3367   -4.9848 C.3       0 UNK        -0.1979 
      2 C          32.1464   24.2268   -3.9877 C.2       0 UNK         0.4864 
      3 O          31.9779   25.4192   -4.2450 O.2       0 UNK        -0.5359 
      4 N          31.7208   23.6561   -2.8516 N.am      1 UNK        -0.4318 
      5 CA         30.9805   24.3446   -1.7877 C.3       1 UNK         0.0824 
      6 C6         30.9253   23.4755   -0.5036 C.3       12 UNK        -0.0944 
      7 S7         30.2067   24.3355    0.9355 S.3       12 UNK        -0.2672 
      8 C8         30.8933   23.3565    2.3044 C.3       12 UNK         0.0333 
      9 C9         30.3808   23.8651    3.6425 C.ar      12 UNK        -0.0807 
     10 C10        31.2301   24.5427    4.5227 C.ar      12 UNK        -0.0894 
     11 C11        30.7474   25.0232    5.7444 C.ar      12 UNK        -0.0804 
     12 C12        29.4067   24.8243    6.0839 C.ar      12 UNK        -0.0824 
     13 C13        28.5511   24.1465    5.2113 C.ar      12 UNK        -0.0762 
     14 C14        29.0454   23.6601    3.9983 C.ar      12 UNK        -0.0782 
     15 C15        27.0857   23.9549    5.5619 C.3       12 UNK         0.0230 
     16 S16        26.0263   25.0248    4.5429 S.3       12 UNK        -0.2608 
     17 C17        26.4569   26.6878    5.1639 C.3       12 UNK        -0.0989 
     18 CA         27.4735   27.4561    4.2735 C.3       5 UNK         0.0716 
     19 N          27.0524   27.4836    2.8691 N.am      5 UNK        -0.4135 
     20 C          27.6358   28.0988    1.8300 C.2       4 UNK         0.5031 
     21 O          28.6405   28.8151    1.9088 O.2       4 UNK        -0.5229 
     22 CA         26.9732   27.8539    0.4601 C.3       4 UNK         0.0329 
     23 CB         27.6928   28.5843   -0.6836 C.3       4 UNK        -0.2001 
     24 N          26.9101   26.4239    0.1430 N.am      4 UNK        -0.4303 
     25 C          25.9650   25.5832    0.5901 C.2       3 UNK         0.5044 
     26 O          25.0350   25.9527    1.3095 O.2       3 UNK        -0.5152 
     27 CA         26.0894   24.0910    0.2129 C.3       3 UNK         0.0319 
     28 CB         24.7333   23.3544    0.2343 C.3       3 UNK        -0.2001 
     29 N          26.7965   23.8520   -1.0506 N.am      3 UNK        -0.4354 
     30 C          26.4566   24.2810   -2.2777 C.2       2 UNK         0.4964 
     31 O          25.4111   24.8822   -2.5289 O.2       2 UNK        -0.5047 
     32 CA         27.4722   24.0031   -3.4112 C.3       2 UNK         0.0288 
     33 CB         27.3868   25.0462   -4.5463 C.3       2 UNK        -0.2113 
     34 N          28.8633   23.8674   -2.9462 N.am      2 UNK        -0.4145 
     35 C          29.5698   24.7725   -2.2465 C.2       1 UNK         0.5006 
     36 O          29.1380   25.8804   -1.9256 O.2       1 UNK        -0.5103 
     37 C          27.6857   28.8803    4.8200 C.2       5 UNK         0.5055 
     38 O          26.7011   29.5812    5.0624 O.2       5 UNK        -0.5220 
     39 N          28.9534   29.3040    4.9304 N.am      6 UNK        -0.4450 
     40 CA         29.4388   30.6427    5.3069 C.3       6 UNK         0.0367 
     41 CB         29.0068   31.0033    6.7433 C.3       6 UNK        -0.1929 
     42 C          29.0946   31.7795    4.3148 C.2       6 UNK         0.5070 
     43 O          29.6643   32.8681    4.4330 O.2       6 UNK        -0.5237 
     44 N          28.1836   31.5312    3.3627 N.am      7 UNK        -0.4739 
     45 CA         27.7543   32.4684    2.3248 C.3       7 UNK         0.0276 
     46 CB         26.4103   32.0005    1.7432 C.3       7 UNK        -0.1927 
     47 C          28.8012   32.6254    1.2127 C.2       7 UNK         0.5013 
     48 O          28.9779   33.7349    0.7073 O.2       7 UNK        -0.5193 
     49 N          29.4799   31.5241    0.8668 N.am      8 UNK        -0.4253 
     50 CA         30.6087   31.5099   -0.0675 C.3       8 UNK         0.0242 
     51 CB         30.1385   31.1779   -1.4941 C.3       8 UNK        -0.2000 
     52 C          31.7276   30.5648    0.3898 C.2       8 UNK         0.4948 
     53 O          32.8776   30.7940    0.0106 O.2       8 UNK        -0.5275 
     54 N          31.4100   29.5444    1.2029 N.am      9 UNK        -0.4246 
     55 CA         32.4052   28.7128    1.8815 C.3       9 UNK         0.0261 
     56 CB         31.7038   27.4973    2.5034 C.3       9 UNK        -0.1959 
     57 C          33.1454   29.5246    2.9590 C.2       9 UNK         0.5033 
     58 O          32.5139   30.3258    3.6511 O.2       9 UNK        -0.5390 
     59 N          34.4620   29.3082    3.0807 N.am      10 UNK        -0.4215 
     60 CA         35.3231   30.0176    4.0335 C.3       10 UNK         0.0240 
     61 CB         36.8002   29.7681    3.6847 C.3       10 UNK        -0.1982 
     62 C          35.0365   29.6422    5.4971 C.2       10 UNK         0.4970 
     63 O          34.9932   30.5306    6.3496 O.2       10 UNK        -0.4916 
     64 N          34.8366   28.3398    5.7421 N.am      11 UNK        -0.4279 
     65 CA         34.5247   27.7346    7.0472 C.3       11 UNK         0.1003 
     66 C          35.6155   27.9996    8.1326 C.2       11 UNK         0.5709 
     67 N          35.2747   27.9849    9.4152 N.am      11 UNK        -0.7358 
     68 O          36.7954   28.1577    7.8223 O.2       11 UNK        -0.4999 
     69 C69        33.0641   28.0323    7.5059 C.3       12 UNK        -0.0954 
     70 S70        31.8193   27.5089    6.2789 S.3       12 UNK        -0.2268 
     71 C71        31.6768   25.7476    6.7024 C.3       12 UNK         0.0203 
     72 H72        33.8822   23.7122   -5.1565 H         1 UNK         0.0888 
     73 H73        32.9507   22.3077   -4.6341 H         1 UNK         0.0888 
     74 H74        32.3452   23.3312   -5.9376 H         1 UNK         0.0888 
     75 H75        31.9081   22.6755   -2.6960 H         1 UNK         0.3017 
     76 H76        31.5301   25.2586   -1.5507 H         1 UNK         0.0873 
     77 H77        30.3626   22.5559   -0.6755 H         1 UNK         0.0745 
     78 H78        31.9370   23.1646   -0.2373 H         1 UNK         0.0745 
     79 H79        31.9831   23.3973    2.2673 H         1 UNK         0.0705 
     80 H80        30.6135   22.3093    2.1800 H         1 UNK         0.0705 
     81 H81        32.2663   24.7019    4.2574 H         1 UNK         0.1334 
     82 H82        29.0293   25.2031    7.0241 H         1 UNK         0.1417 
     83 H83        28.3821   23.1444    3.3170 H         1 UNK         0.1562 
     84 H84        26.9015   24.1528    6.6191 H         1 UNK         0.0748 
     85 H85        26.8064   22.9141    5.3919 H         1 UNK         0.0748 
     86 H86        26.8330   26.6053    6.1854 H         1 UNK         0.0940 
     87 H87        25.5196   27.2433    5.2390 H         1 UNK         0.0940 
     88 H88        28.4274   26.9265    4.3048 H         1 UNK         0.0703 
     89 H89        26.2337   26.9214    2.6606 H         1 UNK         0.3081 
     90 H90        25.9583   28.2535    0.5144 H         1 UNK         0.0719 
     91 H91        28.7345   28.2705   -0.7590 H         1 UNK         0.0809 
     92 H92        27.2155   28.3888   -1.6440 H         1 UNK         0.0809 
     93 H93        27.6781   29.6631   -0.5281 H         1 UNK         0.0809 
     94 H94        27.6580   26.0631   -0.4407 H         1 UNK         0.2990 
     95 H95        26.7127   23.6471    0.9908 H         1 UNK         0.0690 
     96 H96        24.8502   22.2997   -0.0145 H         1 UNK         0.0788 
     97 H97        24.0249   23.7901   -0.4708 H         1 UNK         0.0788 
     98 H98        24.2774   23.4029    1.2240 H         1 UNK         0.0788 
     99 H99        27.6800   23.3708   -0.9613 H         1 UNK         0.2993 
    100 H100       27.1921   23.0354   -3.8301 H         1 UNK         0.0949 
    101 H101       27.5869   26.0549   -4.1828 H         1 UNK         0.0767 
    102 H102       28.1018   24.8283   -5.3397 H         1 UNK         0.0767 
    103 H103       26.3948   25.0545   -4.9998 H         1 UNK         0.0767 
    104 H104       29.3096   22.9855   -3.1571 H         1 UNK         0.3013 
    105 H105       29.6856   28.6597    4.6636 H         1 UNK         0.3121 
    106 H106       30.5268   30.5666    5.3097 H         1 UNK         0.0774 
    107 H107       29.4749   31.9337    7.0673 H         1 UNK         0.0815 
    108 H108       27.9280   31.1412    6.8235 H         1 UNK         0.0815 
    109 H109       29.3030   30.2292    7.4517 H         1 UNK         0.0815 
    110 H110       27.7458   30.6158    3.3644 H         1 UNK         0.2987 
    111 H111       27.6074   33.4480    2.7854 H         1 UNK         0.0949 
    112 H112       26.0534   32.6944    0.9807 H         1 UNK         0.0806 
    113 H113       26.4883   31.0174    1.2783 H         1 UNK         0.0806 
    114 H114       25.6427   31.9455    2.5157 H         1 UNK         0.0806 
    115 H115       29.2474   30.6561    1.3371 H         1 UNK         0.3010 
    116 H116       31.0547   32.5070   -0.0882 H         1 UNK         0.0829 
    117 H117       29.3107   31.8162   -1.8030 H         1 UNK         0.0813 
    118 H118       30.9484   31.3294   -2.2089 H         1 UNK         0.0813 
    119 H119       29.8227   30.1409   -1.5889 H         1 UNK         0.0813 
    120 H120       30.4443   29.3713    1.4606 H         1 UNK         0.3038 
    121 H121       33.1220   28.3588    1.1374 H         1 UNK         0.0769 
    122 H122       30.9920   27.7900    3.2748 H         1 UNK         0.0811 
    123 H123       32.4253   26.8215    2.9626 H         1 UNK         0.0811 
    124 H124       31.1581   26.9320    1.7497 H         1 UNK         0.0811 
    125 H125       34.9086   28.6413    2.4673 H         1 UNK         0.3204 
    126 H126       35.1289   31.0873    3.9258 H         1 UNK         0.0748 
    127 H127       37.4576   30.3005    4.3737 H         1 UNK         0.0771 
    128 H128       37.0593   28.7100    3.7406 H         1 UNK         0.0771 
    129 H129       37.0352   30.1195    2.6797 H         1 UNK         0.0771 
    130 H130       34.9137   27.6939    4.9720 H         1 UNK         0.2980 
    131 H131       34.5944   26.6606    6.8761 H         1 UNK         0.0545 
    132 H132       34.3195   27.8384    9.6999 H         1 UNK         0.3459 
    133 H133       35.9884   28.1333   10.1115 H         1 UNK         0.3459 
    134 H134       32.9338   29.1000    7.6894 H         1 UNK         0.0616 
    135 H135       32.8335   27.5301    8.4463 H         1 UNK         0.0616 
    136 H136       31.3173   25.6505    7.7280 H         1 UNK         0.0634 
    137 H137       32.6624   25.2814    6.6749 H         1 UNK         0.0634 
@<TRIPOS>BOND
     1    1    2 1    
     2    1   72 1    
     3    1   73 1    
     4    1   74 1    
     5    2    3 2    
     6    2    4 am   BACKBONE|DICT|INTERRES
     7    4    5 1    
     8    4   75 1    
     9    5    6 1    
    10    5   35 1    
    11    5   76 1    
    12    6    7 1    
    13    6   77 1    
    14    6   78 1    
    15    7    8 1    
    16    8    9 1    
    17    8   79 1    
    18    8   80 1    
    19    9   10 ar   
    20    9   14 ar   
    21   10   11 ar   
    22   10   81 1    
    23   11   12 ar   
    24   11   71 1    
    25   12   13 ar   
    26   12   82 1    
    27   13   14 ar   
    28   13   15 1    
    29   14   83 1    
    30   15   16 1    
    31   15   84 1    
    32   15   85 1    
    33   16   17 1    
    34   17   18 1    
    35   17   86 1    
    36   17   87 1    
    37   18   19 1    
    38   18   37 1    
    39   18   88 1    
    40   19   20 am   BACKBONE|DICT|INTERRES
    41   19   89 1    
    42   20   21 2    
    43   20   22 1    
    44   22   23 1    
    45   22   24 1    
    46   22   90 1    
    47   23   91 1    
    48   23   92 1    
    49   23   93 1    
    50   24   25 am   BACKBONE|DICT|INTERRES
    51   24   94 1    
    52   25   26 2    
    53   25   27 1    
    54   27   28 1    
    55   27   29 1    
    56   27   95 1    
    57   28   96 1    
    58   28   97 1    
    59   28   98 1    
    60   29   30 am   BACKBONE|DICT|INTERRES
    61   29   99 1    
    62   30   31 2    
    63   30   32 1    
    64   32   33 1    
    65   32   34 1    
    66   32  100 1    
    67   33  101 1    
    68   33  102 1    
    69   33  103 1    
    70   34   35 am   BACKBONE|DICT|INTERRES
    71   34  104 1    
    72   35   36 2    
    73   37   38 2    
    74   37   39 am   BACKBONE|DICT|INTERRES
    75   39   40 1    
    76   39  105 1    
    77   40   41 1    
    78   40   42 1    
    79   40  106 1    
    80   41  107 1    
    81   41  108 1    
    82   41  109 1    
    83   42   43 2    
    84   42   44 am   BACKBONE|DICT|INTERRES
    85   44   45 1    
    86   44  110 1    
    87   45   46 1    
    88   45   47 1    
    89   45  111 1    
    90   46  112 1    
    91   46  113 1    
    92   46  114 1    
    93   47   48 2    
    94   47   49 am   BACKBONE|DICT|INTERRES
    95   49   50 1    
    96   49  115 1    
    97   50   51 1    
    98   50   52 1    
    99   50  116 1    
   100   51  117 1    
   101   51  118 1    
   102   51  119 1    
   103   52   53 2    
   104   52   54 am   BACKBONE|DICT|INTERRES
   105   54   55 1    
   106   54  120 1    
   107   55   56 1    
   108   55   57 1    
   109   55  121 1    
   110   56  122 1    
   111   56  123 1    
   112   56  124 1    
   113   57   58 2    
   114   57   59 am   BACKBONE|DICT|INTERRES
   115   59   60 1    
   116   59  125 1    
   117   60   61 1    
   118   60   62 1    
   119   60  126 1    
   120   61  127 1    
   121   61  128 1    
   122   61  129 1    
   123   62   63 2    
   124   62   64 am   BACKBONE|DICT|INTERRES
   125   64   65 1    
   126   64  130 1    
   127   65   66 1    
   128   65   69 1    
   129   65  131 1    
   130   66   67 am   BACKBONE|DICT|INTERRES
   131   66   68 2    
   132   67  132 1    
   133   67  133 1    
   134   69   70 1    
   135   69  134 1    
   136   69  135 1    
   137   70   71 1    
   138   71  136 1    
   139   71  137 1    
@<TRIPOS>SUBSTRUCTURE
     1 UNK         1 GROUP             0       ****    0 ROOT    
