@<TRIPOS>MOLECULE
3R136
137   139    1
SMALL
USER_CHARGES


@<TRIPOS>ATOM
      1 CA         34.6976   25.0095   -0.3384 C.3       0 UNK        -0.1979 
      2 C          33.2354   25.4142   -0.2278 C.2       0 UNK         0.4864 
      3 O          32.9413   26.5651    0.0983 O.2       0 UNK        -0.5359 
      4 N          32.3159   24.4753   -0.4892 N.am      1 UNK        -0.4318 
      5 CA         30.8720   24.7101   -0.4697 C.3       1 UNK         0.0824 
      6 C6         30.0693   23.4021   -0.2471 C.3       12 UNK        -0.0944 
      7 S7         28.5502   23.6956    0.7238 S.3       12 UNK        -0.2672 
      8 C8         28.8456   22.6670    2.2023 C.3       12 UNK         0.0333 
      9 C9         29.5443   23.4239    3.3276 C.ar      12 UNK        -0.0807 
     10 C10        30.8507   23.9019    3.1734 C.ar      12 UNK        -0.0894 
     11 C11        31.4962   24.5869    4.2095 C.ar      12 UNK        -0.0804 
     12 C12        30.8187   24.7701    5.4217 C.ar      12 UNK        -0.0824 
     13 C13        29.5236   24.2770    5.6006 C.ar      12 UNK        -0.0762 
     14 C14        28.8889   23.6129    4.5478 C.ar      12 UNK        -0.0782 
     15 C15        28.8239   24.4430    6.9425 C.3       12 UNK         0.0230 
     16 S16        28.1259   26.1110    7.1501 S.3       12 UNK        -0.2608 
     17 C17        26.7354   26.0907    5.9677 C.3       12 UNK        -0.0989 
     18 CA         27.0721   26.7977    4.6293 C.3       5 UNK         0.0716 
     19 N          26.2213   26.2965    3.5384 N.am      5 UNK        -0.4135 
     20 C          26.2526   26.6995    2.2612 C.2       4 UNK         0.5031 
     21 O          26.9497   27.6308    1.8464 O.2       4 UNK        -0.5229 
     22 CA         25.3189   25.9714    1.2879 C.3       4 UNK         0.0329 
     23 CB         23.8441   26.3242    1.5609 C.3       4 UNK        -0.2001 
     24 N          25.6865   26.3831   -0.0614 N.am      4 UNK        -0.4303 
     25 C          25.4237   25.7334   -1.2000 C.2       3 UNK         0.5044 
     26 O          24.7961   24.6764   -1.2670 O.2       3 UNK        -0.5152 
     27 CA         25.9734   26.3762   -2.4787 C.3       3 UNK         0.0319 
     28 CB         25.0894   27.5706   -2.8966 C.3       3 UNK        -0.2001 
     29 N          27.3655   26.7805   -2.2693 N.am      3 UNK        -0.4354 
     30 C          28.2099   27.2362   -3.2036 C.2       2 UNK         0.4964 
     31 O          27.9126   27.3942   -4.3879 O.2       2 UNK        -0.5047 
     32 CA         29.6381   27.5704   -2.7374 C.3       2 UNK         0.0288 
     33 CB         29.7361   29.0471   -2.3259 C.3       2 UNK        -0.2113 
     34 N          30.0889   26.7299   -1.6243 N.am      2 UNK        -0.4145 
     35 C          30.4481   25.4459   -1.7542 C.2       1 UNK         0.5006 
     36 O          30.4725   24.8465   -2.8318 O.2       1 UNK        -0.5103 
     37 C          27.0743   28.3379    4.7849 C.2       5 UNK         0.5055 
     38 O          28.1140   28.9156    5.1021 O.2       5 UNK        -0.5220 
     39 N          25.9256   28.9788    4.5217 N.am      6 UNK        -0.4450 
     40 CA         25.7591   30.4352    4.5468 C.3       6 UNK         0.0367 
     41 CB         24.2623   30.7724    4.4510 C.3       6 UNK        -0.1929 
     42 C          26.5451   31.1764    3.4470 C.2       6 UNK         0.5070 
     43 O          26.9127   32.3332    3.6538 O.2       6 UNK        -0.5237 
     44 N          26.7805   30.5146    2.3061 N.am      7 UNK        -0.4739 
     45 CA         27.5355   31.0525    1.1708 C.3       7 UNK         0.0276 
     46 CB         26.8278   30.6408   -0.1314 C.3       7 UNK        -0.1927 
     47 C          28.9934   30.5637    1.1574 C.2       7 UNK         0.5013 
     48 O          29.8371   31.2046    0.5291 O.2       7 UNK        -0.5193 
     49 N          29.2652   29.4300    1.8172 N.am      8 UNK        -0.4253 
     50 CA         30.5469   28.7254    1.8618 C.3       8 UNK         0.0242 
     51 CB         30.2874   27.2944    2.3548 C.3       8 UNK        -0.2000 
     52 C          31.6138   29.4476    2.7088 C.2       8 UNK         0.4948 
     53 O          32.0756   28.9167    3.7220 O.2       8 UNK        -0.5275 
     54 N          32.0123   30.6432    2.2547 N.am      9 UNK        -0.4246 
     55 CA         32.9865   31.5422    2.8856 C.3       9 UNK         0.0261 
     56 CB         33.1193   32.8134    2.0319 C.3       9 UNK        -0.1959 
     57 C          34.3741   30.9282    3.1535 C.2       9 UNK         0.5033 
     58 O          35.0793   31.4148    4.0383 O.2       9 UNK        -0.5390 
     59 N          34.7289   29.8555    2.4309 N.am      10 UNK        -0.4215 
     60 CA         35.9356   29.0489    2.6392 C.3       10 UNK         0.0240 
     61 CB         35.9985   27.9541    1.5629 C.3       10 UNK        -0.1982 
     62 C          36.0349   28.4189    4.0430 C.2       10 UNK         0.4970 
     63 O          37.1505   28.2144    4.5231 O.2       10 UNK        -0.4916 
     64 N          34.8860   28.1446    4.6759 N.am      11 UNK        -0.4279 
     65 CA         34.7894   27.6886    6.0711 C.3       11 UNK         0.1003 
     66 C          34.6877   28.8555    7.0990 C.2       11 UNK         0.5709 
     67 N          34.7512   30.1217    6.7012 N.am      11 UNK        -0.7358 
     68 O          34.5713   28.6086    8.2972 O.2       11 UNK        -0.4999 
     69 C69        33.6454   26.6556    6.2485 C.3       12 UNK        -0.0954 
     70 S70        34.0113   25.0715    5.4146 S.3       12 UNK        -0.2268 
     71 C71        32.9031   25.1426    3.9697 C.3       12 UNK         0.0203 
     72 H72        34.8156   24.0404   -0.8229 H         1 UNK         0.0888 
     73 H73        35.2486   25.7476   -0.9206 H         1 UNK         0.0888 
     74 H74        35.1462   24.9518    0.6528 H         1 UNK         0.0888 
     75 H75        32.6110   23.5588   -0.7950 H         1 UNK         0.3017 
     76 H76        30.6744   25.3638    0.3786 H         1 UNK         0.0873 
     77 H77        29.7992   22.9153   -1.1864 H         1 UNK         0.0745 
     78 H78        30.6834   22.6694    0.2773 H         1 UNK         0.0745 
     79 H79        27.8769   22.2988    2.5435 H         1 UNK         0.0705 
     80 H80        29.4212   21.7775    1.9438 H         1 UNK         0.0705 
     81 H81        31.3675   23.7501    2.2379 H         1 UNK         0.1334 
     82 H82        31.2915   25.2918    6.2398 H         1 UNK         0.1417 
     83 H83        27.8867   23.2306    4.6849 H         1 UNK         0.1562 
     84 H84        29.5396   24.2625    7.7460 H         1 UNK         0.0748 
     85 H85        28.0382   23.6963    7.0681 H         1 UNK         0.0748 
     86 H86        25.8623   26.5430    6.4426 H         1 UNK         0.0940 
     87 H87        26.4590   25.0504    5.7916 H         1 UNK         0.0940 
     88 H88        28.0865   26.5130    4.3471 H         1 UNK         0.0703 
     89 H89        25.5960   25.5418    3.7798 H         1 UNK         0.3081 
     90 H90        25.4772   24.8960    1.3930 H         1 UNK         0.0719 
     91 H91        23.6648   27.3969    1.4756 H         1 UNK         0.0809 
     92 H92        23.1794   25.8204    0.8588 H         1 UNK         0.0809 
     93 H93        23.5390   26.0185    2.5621 H         1 UNK         0.0809 
     94 H94        26.2231   27.2410   -0.0772 H         1 UNK         0.2990 
     95 H95        25.9508   25.6233   -3.2692 H         1 UNK         0.0690 
     96 H96        25.3677   27.9563   -3.8770 H         1 UNK         0.0788 
     97 H97        25.1562   28.3932   -2.1837 H         1 UNK         0.0788 
     98 H98        24.0406   27.2765   -2.9589 H         1 UNK         0.0788 
     99 H99        27.7316   26.6179   -1.3421 H         1 UNK         0.2993 
    100 H100       30.3077   27.4082   -3.5853 H         1 UNK         0.0949 
    101 H101       30.7537   29.3168   -2.0417 H         1 UNK         0.0767 
    102 H102       29.4447   29.7026   -3.1478 H         1 UNK         0.0767 
    103 H103       29.0826   29.2711   -1.4843 H         1 UNK         0.0767 
    104 H104       30.1569   27.1677   -0.7178 H         1 UNK         0.3013 
    105 H105       25.1177   28.4315    4.2632 H         1 UNK         0.3121 
    106 H106       26.1290   30.7960    5.5091 H         1 UNK         0.0774 
    107 H107       24.1024   31.8507    4.4959 H         1 UNK         0.0815 
    108 H108       23.8270   30.4182    3.5156 H         1 UNK         0.0815 
    109 H109       23.7007   30.3300    5.2740 H         1 UNK         0.0815 
    110 H110       26.4887   29.5458    2.2319 H         1 UNK         0.2987 
    111 H111       27.5569   32.1437    1.2149 H         1 UNK         0.0949 
    112 H112       26.7981   29.5576   -0.2524 H         1 UNK         0.0806 
    113 H113       25.8019   31.0085   -0.1576 H         1 UNK         0.0806 
    114 H114       27.3400   31.0537   -1.0016 H         1 UNK         0.0806 
    115 H115       28.4912   28.9624    2.2730 H         1 UNK         0.3010 
    116 H116       30.9331   28.6627    0.8424 H         1 UNK         0.0829 
    117 H117       29.4774   26.8107    1.8105 H         1 UNK         0.0813 
    118 H118       31.1777   26.6859    2.2164 H         1 UNK         0.0813 
    119 H119       30.0382   27.2712    3.4158 H         1 UNK         0.0813 
    120 H120       31.5153   31.0065    1.4449 H         1 UNK         0.3038 
    121 H121       32.5743   31.8241    3.8566 H         1 UNK         0.0769 
    122 H122       33.4946   32.5897    1.0325 H         1 UNK         0.0811 
    123 H123       33.8107   33.5226    2.4896 H         1 UNK         0.0811 
    124 H124       32.1608   33.3218    1.9245 H         1 UNK         0.0811 
    125 H125       34.0796   29.5254    1.7316 H         1 UNK         0.3204 
    126 H126       36.7968   29.7083    2.5140 H         1 UNK         0.0748 
    127 H127       36.0023   28.3786    0.5588 H         1 UNK         0.0771 
    128 H128       36.9047   27.3552    1.6648 H         1 UNK         0.0771 
    129 H129       35.1485   27.2753    1.6383 H         1 UNK         0.0771 
    130 H130       34.0038   28.3756    4.2302 H         1 UNK         0.2980 
    131 H131       35.7175   27.1777    6.3339 H         1 UNK         0.0545 
    132 H132       34.6913   30.8508    7.3936 H         1 UNK         0.3459 
    133 H133       34.8822   30.3690    5.7268 H         1 UNK         0.3459 
    134 H134       32.7033   27.0717    5.8874 H         1 UNK         0.0616 
    135 H135       33.4897   26.4208    7.3028 H         1 UNK         0.0616 
    136 H136       32.8387   26.1743    3.6258 H         1 UNK         0.0634 
    137 H137       33.3849   24.5856    3.1648 H         1 UNK         0.0634 
@<TRIPOS>BOND
     1    1    2 1    
     2    1   72 1    
     3    1   73 1    
     4    1   74 1    
     5    2    3 2    
     6    2    4 am   BACKBONE|DICT|INTERRES
     7    4    5 1    
     8    4   75 1    
     9    5    6 1    
    10    5   35 1    
    11    5   76 1    
    12    6    7 1    
    13    6   77 1    
    14    6   78 1    
    15    7    8 1    
    16    8    9 1    
    17    8   79 1    
    18    8   80 1    
    19    9   10 ar   
    20    9   14 ar   
    21   10   11 ar   
    22   10   81 1    
    23   11   12 ar   
    24   11   71 1    
    25   12   13 ar   
    26   12   82 1    
    27   13   14 ar   
    28   13   15 1    
    29   14   83 1    
    30   15   16 1    
    31   15   84 1    
    32   15   85 1    
    33   16   17 1    
    34   17   18 1    
    35   17   86 1    
    36   17   87 1    
    37   18   19 1    
    38   18   37 1    
    39   18   88 1    
    40   19   20 am   BACKBONE|DICT|INTERRES
    41   19   89 1    
    42   20   21 2    
    43   20   22 1    
    44   22   23 1    
    45   22   24 1    
    46   22   90 1    
    47   23   91 1    
    48   23   92 1    
    49   23   93 1    
    50   24   25 am   BACKBONE|DICT|INTERRES
    51   24   94 1    
    52   25   26 2    
    53   25   27 1    
    54   27   28 1    
    55   27   29 1    
    56   27   95 1    
    57   28   96 1    
    58   28   97 1    
    59   28   98 1    
    60   29   30 am   BACKBONE|DICT|INTERRES
    61   29   99 1    
    62   30   31 2    
    63   30   32 1    
    64   32   33 1    
    65   32   34 1    
    66   32  100 1    
    67   33  101 1    
    68   33  102 1    
    69   33  103 1    
    70   34   35 am   BACKBONE|DICT|INTERRES
    71   34  104 1    
    72   35   36 2    
    73   37   38 2    
    74   37   39 am   BACKBONE|DICT|INTERRES
    75   39   40 1    
    76   39  105 1    
    77   40   41 1    
    78   40   42 1    
    79   40  106 1    
    80   41  107 1    
    81   41  108 1    
    82   41  109 1    
    83   42   43 2    
    84   42   44 am   BACKBONE|DICT|INTERRES
    85   44   45 1    
    86   44  110 1    
    87   45   46 1    
    88   45   47 1    
    89   45  111 1    
    90   46  112 1    
    91   46  113 1    
    92   46  114 1    
    93   47   48 2    
    94   47   49 am   BACKBONE|DICT|INTERRES
    95   49   50 1    
    96   49  115 1    
    97   50   51 1    
    98   50   52 1    
    99   50  116 1    
   100   51  117 1    
   101   51  118 1    
   102   51  119 1    
   103   52   53 2    
   104   52   54 am   BACKBONE|DICT|INTERRES
   105   54   55 1    
   106   54  120 1    
   107   55   56 1    
   108   55   57 1    
   109   55  121 1    
   110   56  122 1    
   111   56  123 1    
   112   56  124 1    
   113   57   58 2    
   114   57   59 am   BACKBONE|DICT|INTERRES
   115   59   60 1    
   116   59  125 1    
   117   60   61 1    
   118   60   62 1    
   119   60  126 1    
   120   61  127 1    
   121   61  128 1    
   122   61  129 1    
   123   62   63 2    
   124   62   64 am   BACKBONE|DICT|INTERRES
   125   64   65 1    
   126   64  130 1    
   127   65   66 1    
   128   65   69 1    
   129   65  131 1    
   130   66   67 am   BACKBONE|DICT|INTERRES
   131   66   68 2    
   132   67  132 1    
   133   67  133 1    
   134   69   70 1    
   135   69  134 1    
   136   69  135 1    
   137   70   71 1    
   138   71  136 1    
   139   71  137 1    
@<TRIPOS>SUBSTRUCTURE
     1 UNK         1 GROUP             0       ****    0 ROOT    
