@<TRIPOS>MOLECULE
3R136
137   139    1
SMALL
USER_CHARGES


@<TRIPOS>ATOM
      1 CA         26.3295   23.6829   -4.8861 C.3       0 UNK        -0.1979 
      2 C          27.3132   23.4993   -3.7402 C.2       0 UNK         0.4864 
      3 O          27.7467   22.3747   -3.4836 O.2       0 UNK        -0.5359 
      4 N          27.6590   24.5931   -3.0453 N.am      1 UNK        -0.4318 
      5 CA         28.5804   24.6821   -1.9023 C.3       1 UNK         0.0824 
      6 C6         30.0152   24.1874   -2.2272 C.3       12 UNK        -0.0944 
      7 S7         31.2596   24.8468   -1.0678 S.3       12 UNK        -0.2672 
      8 C8         31.6283   23.3882   -0.0377 C.3       12 UNK         0.0333 
      9 C9         31.6401   23.7418    1.4421 C.ar      12 UNK        -0.0807 
     10 C10        32.6346   24.5812    1.9539 C.ar      12 UNK        -0.0894 
     11 C11        32.6504   24.9160    3.3100 C.ar      12 UNK        -0.0804 
     12 C12        31.6720   24.3941    4.1604 C.ar      12 UNK        -0.0824 
     13 C13        30.6757   23.5480    3.6636 C.ar      12 UNK        -0.0762 
     14 C14        30.6651   23.2250    2.3027 C.ar      12 UNK        -0.0782 
     15 C15        29.6084   22.9924    4.5987 C.3       12 UNK         0.0230 
     16 S16        27.9972   23.8201    4.3883 S.3       12 UNK        -0.2608 
     17 C17        28.4291   25.5680    4.7046 C.3       12 UNK        -0.0989 
     18 CA         28.6228   26.3373    3.3717 C.3       5 UNK         0.0716 
     19 N          27.3939   26.3970    2.5750 N.am      5 UNK        -0.4135 
     20 C          26.2993   27.1349    2.8118 C.2       4 UNK         0.5031 
     21 O          26.1974   27.9732    3.7081 O.2       4 UNK        -0.5229 
     22 CA         25.0872   26.8458    1.9110 C.3       4 UNK         0.0329 
     23 CB         25.3269   27.3362    0.4728 C.3       4 UNK        -0.2001 
     24 N          24.7608   25.4184    1.9032 N.am      4 UNK        -0.4303 
     25 C          24.2758   24.7337    2.9487 C.2       3 UNK         0.5044 
     26 O          23.9194   25.2633    4.0018 O.2       3 UNK        -0.5152 
     27 CA         24.1885   23.1990    2.8269 C.3       3 UNK         0.0319 
     28 CB         22.8268   22.7558    2.2559 C.3       3 UNK        -0.2001 
     29 N          25.3168   22.5818    2.1113 N.am      3 UNK        -0.4354 
     30 C          25.6268   22.6685    0.8111 C.2       2 UNK         0.4964 
     31 O          24.9346   23.2504   -0.0278 O.2       2 UNK        -0.5047 
     32 CA         26.9561   22.0216    0.3870 C.3       2 UNK         0.0288 
     33 CB         26.7318   20.5732   -0.0740 C.3       2 UNK        -0.2113 
     34 N          27.6108   22.7699   -0.6880 N.am      2 UNK        -0.4145 
     35 C          28.0096   24.0467   -0.6165 C.2       1 UNK         0.5006 
     36 O          27.9197   24.7302    0.4045 O.2       1 UNK        -0.5103 
     37 C          29.2884   27.7169    3.5366 C.2       5 UNK         0.5055 
     38 O          29.5744   28.1520    4.6557 O.2       5 UNK        -0.5220 
     39 N          29.5168   28.3803    2.3993 N.am      6 UNK        -0.4450 
     40 CA         30.1978   29.6613    2.3036 C.3       6 UNK         0.0367 
     41 CB         29.1681   30.8037    2.3483 C.3       6 UNK        -0.1929 
     42 C          31.0070   29.6951    1.0055 C.2       6 UNK         0.5070 
     43 O          30.6302   29.0435    0.0279 O.2       6 UNK        -0.5237 
     44 N          32.0847   30.4788    1.0259 N.am      7 UNK        -0.4739 
     45 CA         32.9671   30.7561   -0.1018 C.3       7 UNK         0.0276 
     46 CB         34.2370   29.8876    0.0212 C.3       7 UNK        -0.1927 
     47 C          33.2166   32.2711   -0.1078 C.2       7 UNK         0.5013 
     48 O          32.2667   33.0294   -0.3104 O.2       7 UNK        -0.5193 
     49 N          34.4587   32.6990    0.1620 N.am      8 UNK        -0.4253 
     50 CA         34.8210   34.1041    0.3955 C.3       8 UNK         0.0242 
     51 CB         36.3509   34.2468    0.3413 C.3       8 UNK        -0.2000 
     52 C          34.2742   34.6550    1.7295 C.2       8 UNK         0.4948 
     53 O          34.1379   35.8703    1.8754 O.2       8 UNK        -0.5275 
     54 N          33.9651   33.7517    2.6648 N.am      9 UNK        -0.4246 
     55 CA         33.2950   33.9870    3.9368 C.3       9 UNK         0.0261 
     56 CB         34.3484   34.2221    5.0347 C.3       9 UNK        -0.1959 
     57 C          32.4346   32.7508    4.2355 C.2       9 UNK         0.5033 
     58 O          32.5387   31.7478    3.5194 O.2       9 UNK        -0.5390 
     59 N          31.6125   32.8268    5.2893 N.am      10 UNK        -0.4215 
     60 CA         30.7819   31.7284    5.7938 C.3       10 UNK         0.0240 
     61 CB         29.6778   32.3066    6.6979 C.3       10 UNK        -0.1982 
     62 C          31.6368   30.6667    6.5123 C.2       10 UNK         0.4970 
     63 O          31.6737   30.6317    7.7437 O.2       10 UNK        -0.4916 
     64 N          32.3512   29.8628    5.7191 N.am      11 UNK        -0.4279 
     65 CA         33.2842   28.8207    6.1634 C.3       11 UNK         0.1003 
     66 C          32.6477   27.6247    6.9311 C.2       11 UNK         0.5709 
     67 N          31.3577   27.3469    6.7859 N.am      11 UNK        -0.7358 
     68 O          33.3411   26.9446    7.6834 O.2       11 UNK        -0.4999 
     69 C69        34.1966   28.3594    4.9959 C.3       12 UNK        -0.0954 
     70 S70        33.2806   27.5842    3.6179 S.3       12 UNK        -0.2268 
     71 C71        33.7246   25.8373    3.8619 C.3       12 UNK         0.0203 
     72 H72        26.0336   24.7247   -5.0082 H         1 UNK         0.0888 
     73 H73        26.7764   23.3457   -5.8209 H         1 UNK         0.0888 
     74 H74        25.4307   23.0938   -4.7056 H         1 UNK         0.0888 
     75 H75        27.2352   25.4734   -3.3048 H         1 UNK         0.3017 
     76 H76        28.6490   25.7526   -1.6997 H         1 UNK         0.0873 
     77 H77        30.0666   23.0986   -2.2762 H         1 UNK         0.0745 
     78 H78        30.3017   24.5357   -3.2207 H         1 UNK         0.0745 
     79 H79        30.9045   22.5942   -0.2254 H         1 UNK         0.0705 
     80 H80        32.6016   22.9875   -0.3244 H         1 UNK         0.0705 
     81 H81        33.3882   24.9860    1.2920 H         1 UNK         0.1334 
     82 H82        31.6834   24.6557    5.2099 H         1 UNK         0.1417 
     83 H83        29.8903   22.5788    1.9151 H         1 UNK         0.1562 
     84 H84        29.9221   23.0833    5.6398 H         1 UNK         0.0748 
     85 H85        29.4835   21.9248    4.4121 H         1 UNK         0.0748 
     86 H86        29.3293   25.6068    5.3193 H         1 UNK         0.0940 
     87 H87        27.6393   26.0275    5.3012 H         1 UNK         0.0940 
     88 H88        29.3270   25.7696    2.7632 H         1 UNK         0.0703 
     89 H89        27.3864   25.7546    1.7839 H         1 UNK         0.3081 
     90 H90        24.2301   27.3883    2.3157 H         1 UNK         0.0719 
     91 H91        26.1437   26.8014   -0.0127 H         1 UNK         0.0809 
     92 H92        24.4350   27.2084   -0.1407 H         1 UNK         0.0809 
     93 H93        25.5787   28.3975    0.4606 H         1 UNK         0.0809 
     94 H94        24.9881   24.8893    1.0674 H         1 UNK         0.2990 
     95 H95        24.2520   22.8095    3.8444 H         1 UNK         0.0690 
     96 H96        22.7494   21.6695    2.2121 H         1 UNK         0.0788 
     97 H97        22.6539   23.1462    1.2528 H         1 UNK         0.0788 
     98 H98        22.0102   23.1141    2.8840 H         1 UNK         0.0788 
     99 H99        25.9751   22.1056    2.7132 H         1 UNK         0.2993 
    100 H100       27.6310   22.0196    1.2451 H         1 UNK         0.0949 
    101 H101       26.2650   19.9782    0.7123 H         1 UNK         0.0767 
    102 H102       26.0815   20.5272   -0.9489 H         1 UNK         0.0767 
    103 H103       27.6739   20.0883   -0.3308 H         1 UNK         0.0767 
    104 H104       27.6642   22.3254   -1.6013 H         1 UNK         0.3013 
    105 H105       29.3125   27.9442    1.5085 H         1 UNK         0.3121 
    106 H106       30.8924   29.7574    3.1387 H         1 UNK         0.0774 
    107 H107       29.6639   31.7752    2.3250 H         1 UNK         0.0815 
    108 H108       28.4857   30.7621    1.4986 H         1 UNK         0.0815 
    109 H109       28.5691   30.7645    3.2582 H         1 UNK         0.0815 
    110 H110       32.2796   30.9971    1.8824 H         1 UNK         0.2987 
    111 H111       32.4675   30.5154   -1.0430 H         1 UNK         0.0949 
    112 H112       34.9362   30.0868   -0.7920 H         1 UNK         0.0806 
    113 H113       34.7572   30.0483    0.9665 H         1 UNK         0.0806 
    114 H114       33.9844   28.8281   -0.0308 H         1 UNK         0.0806 
    115 H115       35.1856   32.0116    0.3009 H         1 UNK         0.3010 
    116 H116       34.3910   34.7067   -0.4077 H         1 UNK         0.0829 
    117 H117       36.7464   33.9255   -0.6225 H         1 UNK         0.0813 
    118 H118       36.6502   35.2866    0.4815 H         1 UNK         0.0813 
    119 H119       36.8402   33.6599    1.1197 H         1 UNK         0.0813 
    120 H120       34.0496   32.7696    2.4368 H         1 UNK         0.3038 
    121 H121       32.6370   34.8545    3.8537 H         1 UNK         0.0769 
    122 H122       34.9927   33.3517    5.1667 H         1 UNK         0.0811 
    123 H123       33.8810   34.4329    5.9970 H         1 UNK         0.0811 
    124 H124       34.9851   35.0739    4.7943 H         1 UNK         0.0811 
    125 H125       31.6066   33.6765    5.8354 H         1 UNK         0.3204 
    126 H126       30.2911   31.2401    4.9513 H         1 UNK         0.0748 
    127 H127       29.0347   32.9934    6.1472 H         1 UNK         0.0771 
    128 H128       29.0407   31.5119    7.0887 H         1 UNK         0.0771 
    129 H129       30.0903   32.8446    7.5524 H         1 UNK         0.0771 
    130 H130       32.3091   30.0189    4.7204 H         1 UNK         0.2980 
    131 H131       33.9394   29.3052    6.8898 H         1 UNK         0.0545 
    132 H132       30.9586   26.5883    7.3125 H         1 UNK         0.3459 
    133 H133       30.7884   27.8513    6.1119 H         1 UNK         0.3459 
    134 H134       34.7300   29.2207    4.5906 H         1 UNK         0.0616 
    135 H135       34.9735   27.6842    5.3584 H         1 UNK         0.0616 
    136 H136       33.8691   25.6332    4.9239 H         1 UNK         0.0634 
    137 H137       34.6814   25.6382    3.3771 H         1 UNK         0.0634 
@<TRIPOS>BOND
     1    1    2 1    
     2    1   72 1    
     3    1   73 1    
     4    1   74 1    
     5    2    3 2    
     6    2    4 am   BACKBONE|DICT|INTERRES
     7    4    5 1    
     8    4   75 1    
     9    5    6 1    
    10    5   35 1    
    11    5   76 1    
    12    6    7 1    
    13    6   77 1    
    14    6   78 1    
    15    7    8 1    
    16    8    9 1    
    17    8   79 1    
    18    8   80 1    
    19    9   10 ar   
    20    9   14 ar   
    21   10   11 ar   
    22   10   81 1    
    23   11   12 ar   
    24   11   71 1    
    25   12   13 ar   
    26   12   82 1    
    27   13   14 ar   
    28   13   15 1    
    29   14   83 1    
    30   15   16 1    
    31   15   84 1    
    32   15   85 1    
    33   16   17 1    
    34   17   18 1    
    35   17   86 1    
    36   17   87 1    
    37   18   19 1    
    38   18   37 1    
    39   18   88 1    
    40   19   20 am   BACKBONE|DICT|INTERRES
    41   19   89 1    
    42   20   21 2    
    43   20   22 1    
    44   22   23 1    
    45   22   24 1    
    46   22   90 1    
    47   23   91 1    
    48   23   92 1    
    49   23   93 1    
    50   24   25 am   BACKBONE|DICT|INTERRES
    51   24   94 1    
    52   25   26 2    
    53   25   27 1    
    54   27   28 1    
    55   27   29 1    
    56   27   95 1    
    57   28   96 1    
    58   28   97 1    
    59   28   98 1    
    60   29   30 am   BACKBONE|DICT|INTERRES
    61   29   99 1    
    62   30   31 2    
    63   30   32 1    
    64   32   33 1    
    65   32   34 1    
    66   32  100 1    
    67   33  101 1    
    68   33  102 1    
    69   33  103 1    
    70   34   35 am   BACKBONE|DICT|INTERRES
    71   34  104 1    
    72   35   36 2    
    73   37   38 2    
    74   37   39 am   BACKBONE|DICT|INTERRES
    75   39   40 1    
    76   39  105 1    
    77   40   41 1    
    78   40   42 1    
    79   40  106 1    
    80   41  107 1    
    81   41  108 1    
    82   41  109 1    
    83   42   43 2    
    84   42   44 am   BACKBONE|DICT|INTERRES
    85   44   45 1    
    86   44  110 1    
    87   45   46 1    
    88   45   47 1    
    89   45  111 1    
    90   46  112 1    
    91   46  113 1    
    92   46  114 1    
    93   47   48 2    
    94   47   49 am   BACKBONE|DICT|INTERRES
    95   49   50 1    
    96   49  115 1    
    97   50   51 1    
    98   50   52 1    
    99   50  116 1    
   100   51  117 1    
   101   51  118 1    
   102   51  119 1    
   103   52   53 2    
   104   52   54 am   BACKBONE|DICT|INTERRES
   105   54   55 1    
   106   54  120 1    
   107   55   56 1    
   108   55   57 1    
   109   55  121 1    
   110   56  122 1    
   111   56  123 1    
   112   56  124 1    
   113   57   58 2    
   114   57   59 am   BACKBONE|DICT|INTERRES
   115   59   60 1    
   116   59  125 1    
   117   60   61 1    
   118   60   62 1    
   119   60  126 1    
   120   61  127 1    
   121   61  128 1    
   122   61  129 1    
   123   62   63 2    
   124   62   64 am   BACKBONE|DICT|INTERRES
   125   64   65 1    
   126   64  130 1    
   127   65   66 1    
   128   65   69 1    
   129   65  131 1    
   130   66   67 am   BACKBONE|DICT|INTERRES
   131   66   68 2    
   132   67  132 1    
   133   67  133 1    
   134   69   70 1    
   135   69  134 1    
   136   69  135 1    
   137   70   71 1    
   138   71  136 1    
   139   71  137 1    
@<TRIPOS>SUBSTRUCTURE
     1 UNK         1 GROUP             0       ****    0 ROOT    
