@<TRIPOS>MOLECULE
3R136
137   139    1
SMALL
USER_CHARGES


@<TRIPOS>ATOM
      1 CA         28.9125   21.5796    0.3403 C.3       0 UNK        -0.1979 
      2 C          29.3164   22.8247   -0.4344 C.2       0 UNK         0.4864 
      3 O          29.2232   22.8344   -1.6625 O.2       0 UNK        -0.5359 
      4 N          29.7524   23.8736    0.2779 N.am      1 UNK        -0.4318 
      5 CA         30.1683   25.1837   -0.2384 C.3       1 UNK         0.0824 
      6 C6         30.6526   26.1144    0.9049 C.3       12 UNK        -0.0944 
      7 S7         32.3181   25.6844    1.5153 S.3       12 UNK        -0.2672 
      8 C8         32.0356   24.3191    2.6907 C.3       12 UNK         0.0333 
      9 C9         31.3434   24.7647    3.9707 C.ar      12 UNK        -0.0807 
     10 C10        32.1057   25.2244    5.0473 C.ar      12 UNK        -0.0894 
     11 C11        31.4956   25.5908    6.2497 C.ar      12 UNK        -0.0804 
     12 C12        30.1060   25.4909    6.3728 C.ar      12 UNK        -0.0824 
     13 C13        29.3310   25.0263    5.3038 C.ar      12 UNK        -0.0762 
     14 C14        29.9548   24.6669    4.1058 C.ar      12 UNK        -0.0782 
     15 C15        27.8227   24.8913    5.4499 C.3       12 UNK         0.0230 
     16 S16        27.0063   26.4991    5.2251 S.3       12 UNK        -0.2608 
     17 C17        25.8310   26.1942    3.8557 C.3       12 UNK        -0.0989 
     18 CA         26.3794   26.6042    2.4571 C.3       5 UNK         0.0716 
     19 N          25.5564   26.1597    1.3267 N.am      5 UNK        -0.4135 
     20 C          24.2548   26.4192    1.1320 C.2       4 UNK         0.5031 
     21 O          23.5388   26.9877    1.9569 O.2       4 UNK        -0.5229 
     22 CA         23.6230   26.0070   -0.2122 C.3       4 UNK         0.0329 
     23 CB         23.1296   27.2497   -0.9739 C.3       4 UNK        -0.2001 
     24 N          24.5012   25.2474   -1.1032 N.am      4 UNK        -0.4303 
     25 C          24.8121   23.9504   -1.0052 C.2       3 UNK         0.5044 
     26 O          24.4433   23.2320   -0.0765 O.2       3 UNK        -0.5152 
     27 CA         25.6839   23.3463   -2.1273 C.3       3 UNK         0.0319 
     28 CB         24.8144   22.8769   -3.3093 C.3       3 UNK        -0.2001 
     29 N          26.7921   24.2028   -2.5807 N.am      3 UNK        -0.4354 
     30 C          26.7494   25.4057   -3.1790 C.2       2 UNK         0.4964 
     31 O          25.7030   25.9475   -3.5394 O.2       2 UNK        -0.5047 
     32 CA         28.0879   26.1577   -3.3517 C.3       2 UNK         0.0288 
     33 CB         27.8946   27.6885   -3.3543 C.3       2 UNK        -0.2113 
     34 N          29.1113   25.7727   -2.3686 N.am      2 UNK        -0.4145 
     35 C          29.0162   25.8299   -1.0305 C.2       1 UNK         0.5006 
     36 O          28.0493   26.2917   -0.4193 O.2       1 UNK        -0.5103 
     37 C          26.7003   28.1055    2.3052 C.2       5 UNK         0.5055 
     38 O          26.3085   28.9318    3.1326 O.2       5 UNK        -0.5220 
     39 N          27.4512   28.4303    1.2457 N.am      6 UNK        -0.4450 
     40 CA         28.1315   29.7124    1.0621 C.3       6 UNK         0.0367 
     41 CB         28.4264   29.9210   -0.4337 C.3       6 UNK        -0.1929 
     42 C          29.4074   29.7400    1.9235 C.2       6 UNK         0.5070 
     43 O          30.5169   29.7334    1.3891 O.2       6 UNK        -0.5237 
     44 N          29.2165   29.7308    3.2506 N.am      7 UNK        -0.4739 
     45 CA         30.2421   29.5774    4.2903 C.3       7 UNK         0.0276 
     46 CB         29.5771   29.7166    5.6680 C.3       7 UNK        -0.1927 
     47 C          31.4358   30.5379    4.1759 C.2       7 UNK         0.5013 
     48 O          32.5528   30.1546    4.5220 O.2       7 UNK        -0.5193 
     49 N          31.1995   31.7435    3.6392 N.am      8 UNK        -0.4253 
     50 CA         32.2103   32.7615    3.3319 C.3       8 UNK         0.0242 
     51 CB         31.5088   34.0049    2.7618 C.3       8 UNK        -0.2000 
     52 C          33.3305   32.2931    2.3798 C.2       8 UNK         0.4948 
     53 O          34.4054   32.8938    2.3872 O.2       8 UNK        -0.5275 
     54 N          33.0852   31.2272    1.6024 N.am      9 UNK        -0.4246 
     55 CA         34.0872   30.5571    0.7712 C.3       9 UNK         0.0261 
     56 CB         33.3668   29.6615   -0.2514 C.3       9 UNK        -0.1959 
     57 C          35.1086   29.7269    1.5767 C.2       9 UNK         0.5033 
     58 O          36.1321   29.3444    1.0062 O.2       9 UNK        -0.5390 
     59 N          34.8237   29.4400    2.8547 N.am      10 UNK        -0.4215 
     60 CA         35.6297   28.5871    3.7224 C.3       10 UNK         0.0240 
     61 CB         35.0371   27.1640    3.7159 C.3       10 UNK        -0.1982 
     62 C          35.7273   29.2140    5.1210 C.2       10 UNK         0.4970 
     63 O          36.5997   30.0549    5.3411 O.2       10 UNK        -0.4916 
     64 N          34.8593   28.7778    6.0416 N.am      11 UNK        -0.4279 
     65 CA         34.8033   29.2041    7.4489 C.3       11 UNK         0.1003 
     66 C          34.3998   30.6873    7.6944 C.2       11 UNK         0.5709 
     67 N          33.7500   31.3653    6.7589 N.am      11 UNK        -0.7358 
     68 O          34.6983   31.2349    8.7535 O.2       11 UNK        -0.4999 
     69 C69        33.9540   28.2251    8.3074 C.3       12 UNK        -0.0954 
     70 S70        32.3071   27.8702    7.5922 S.3       12 UNK        -0.2268 
     71 C71        32.3490   26.0596    7.4187 C.3       12 UNK         0.0203 
     72 H72        27.8562   21.3652    0.1795 H         1 UNK         0.0888 
     73 H73        29.4903   20.7218   -0.0030 H         1 UNK         0.0888 
     74 H74        29.0770   21.6914    1.4118 H         1 UNK         0.0888 
     75 H75        29.7907   23.7849    1.2795 H         1 UNK         0.3017 
     76 H76        31.0019   25.0206   -0.9248 H         1 UNK         0.0873 
     77 H77        29.9406   26.1497    1.7300 H         1 UNK         0.0745 
     78 H78        30.7283   27.1421    0.5441 H         1 UNK         0.0745 
     79 H79        31.4853   23.5087    2.2161 H         1 UNK         0.0705 
     80 H80        33.0077   23.8918    2.9423 H         1 UNK         0.0705 
     81 H81        33.1811   25.2752    4.9549 H         1 UNK         0.1334 
     82 H82        29.6284   25.7707    7.3020 H         1 UNK         0.1417 
     83 H83        29.3549   24.2972    3.2876 H         1 UNK         0.1562 
     84 H84        27.5811   24.5077    6.4423 H         1 UNK         0.0748 
     85 H85        27.4365   24.1585    4.7403 H         1 UNK         0.0748 
     86 H86        24.9198   26.7473    4.0874 H         1 UNK         0.0940 
     87 H87        25.5416   25.1427    3.8523 H         1 UNK         0.0940 
     88 H88        27.3301   26.0821    2.3360 H         1 UNK         0.0703 
     89 H89        26.0698   25.7462    0.5588 H         1 UNK         0.3081 
     90 H90        22.7569   25.3842    0.0214 H         1 UNK         0.0719 
     91 H91        22.4257   27.8280   -0.3736 H         1 UNK         0.0809 
     92 H92        23.9549   27.9123   -1.2386 H         1 UNK         0.0809 
     93 H93        22.6141   26.9728   -1.8938 H         1 UNK         0.0809 
     94 H94        24.8479   25.7335   -1.9275 H         1 UNK         0.2990 
     95 H95        26.1604   22.4610   -1.7033 H         1 UNK         0.0690 
     96 H96        25.4167   22.3828   -4.0717 H         1 UNK         0.0788 
     97 H97        24.2854   23.7039   -3.7837 H         1 UNK         0.0788 
     98 H98        24.0616   22.1609   -2.9769 H         1 UNK         0.0788 
     99 H99        27.7128   23.8488   -2.3308 H         1 UNK         0.2993 
    100 H100       28.4742   25.8670   -4.3297 H         1 UNK         0.0949 
    101 H101       27.3856   28.0267   -2.4519 H         1 UNK         0.0767 
    102 H102       28.8475   28.2132   -3.4232 H         1 UNK         0.0767 
    103 H103       27.2888   28.0052   -4.2043 H         1 UNK         0.0767 
    104 H104       29.9254   25.3170   -2.7588 H         1 UNK         0.3013 
    105 H105       27.7121   27.6852    0.5998 H         1 UNK         0.3121 
    106 H106       27.4812   30.5243    1.3948 H         1 UNK         0.0774 
    107 H107       29.0533   29.1250   -0.8375 H         1 UNK         0.0815 
    108 H108       27.5056   29.9563   -1.0153 H         1 UNK         0.0815 
    109 H109       28.9497   30.8634   -0.6001 H         1 UNK         0.0815 
    110 H110       28.2537   29.6993    3.5688 H         1 UNK         0.2987 
    111 H111       30.6424   28.5644    4.2036 H         1 UNK         0.0949 
    112 H112       28.8632   28.9121    5.8451 H         1 UNK         0.0806 
    113 H113       30.3147   29.6730    6.4693 H         1 UNK         0.0806 
    114 H114       29.0488   30.6653    5.7679 H         1 UNK         0.0806 
    115 H115       30.2494   31.9532    3.3703 H         1 UNK         0.3010 
    116 H116       32.6882   33.0376    4.2740 H         1 UNK         0.0829 
    117 H117       30.9864   33.7812    1.8307 H         1 UNK         0.0813 
    118 H118       32.2285   34.7969    2.5493 H         1 UNK         0.0813 
    119 H119       30.7833   34.4114    3.4668 H         1 UNK         0.0813 
    120 H120       32.1682   30.7878    1.6397 H         1 UNK         0.3038 
    121 H121       34.6438   31.3209    0.2243 H         1 UNK         0.0769 
    122 H122       32.6505   30.2293   -0.8453 H         1 UNK         0.0811 
    123 H123       32.8270   28.8488    0.2372 H         1 UNK         0.0811 
    124 H124       34.0773   29.2086   -0.9440 H         1 UNK         0.0811 
    125 H125       33.9780   29.8182    3.2758 H         1 UNK         0.3204 
    126 H126       36.6535   28.5269    3.3471 H         1 UNK         0.0748 
    127 H127       33.9680   27.1761    3.9282 H         1 UNK         0.0771 
    128 H128       35.1668   26.6947    2.7404 H         1 UNK         0.0771 
    129 H129       35.5259   26.5212    4.4494 H         1 UNK         0.0771 
    130 H130       34.1287   28.1426    5.7574 H         1 UNK         0.2980 
    131 H131       35.8268   29.1320    7.8221 H         1 UNK         0.0545 
    132 H132       33.4428   30.8950    5.9112 H         1 UNK         0.3459 
    133 H133       33.5019   32.3257    6.9284 H         1 UNK         0.3459 
    134 H134       33.8170   28.6062    9.3211 H         1 UNK         0.0616 
    135 H135       34.5058   27.2926    8.4288 H         1 UNK         0.0616 
    136 H136       33.3760   25.7194    7.2789 H         1 UNK         0.0634 
    137 H137       31.9983   25.6031    8.3454 H         1 UNK         0.0634 
@<TRIPOS>BOND
     1    1    2 1    
     2    1   72 1    
     3    1   73 1    
     4    1   74 1    
     5    2    3 2    
     6    2    4 am   BACKBONE|DICT|INTERRES
     7    4    5 1    
     8    4   75 1    
     9    5    6 1    
    10    5   35 1    
    11    5   76 1    
    12    6    7 1    
    13    6   77 1    
    14    6   78 1    
    15    7    8 1    
    16    8    9 1    
    17    8   79 1    
    18    8   80 1    
    19    9   10 ar   
    20    9   14 ar   
    21   10   11 ar   
    22   10   81 1    
    23   11   12 ar   
    24   11   71 1    
    25   12   13 ar   
    26   12   82 1    
    27   13   14 ar   
    28   13   15 1    
    29   14   83 1    
    30   15   16 1    
    31   15   84 1    
    32   15   85 1    
    33   16   17 1    
    34   17   18 1    
    35   17   86 1    
    36   17   87 1    
    37   18   19 1    
    38   18   37 1    
    39   18   88 1    
    40   19   20 am   BACKBONE|DICT|INTERRES
    41   19   89 1    
    42   20   21 2    
    43   20   22 1    
    44   22   23 1    
    45   22   24 1    
    46   22   90 1    
    47   23   91 1    
    48   23   92 1    
    49   23   93 1    
    50   24   25 am   BACKBONE|DICT|INTERRES
    51   24   94 1    
    52   25   26 2    
    53   25   27 1    
    54   27   28 1    
    55   27   29 1    
    56   27   95 1    
    57   28   96 1    
    58   28   97 1    
    59   28   98 1    
    60   29   30 am   BACKBONE|DICT|INTERRES
    61   29   99 1    
    62   30   31 2    
    63   30   32 1    
    64   32   33 1    
    65   32   34 1    
    66   32  100 1    
    67   33  101 1    
    68   33  102 1    
    69   33  103 1    
    70   34   35 am   BACKBONE|DICT|INTERRES
    71   34  104 1    
    72   35   36 2    
    73   37   38 2    
    74   37   39 am   BACKBONE|DICT|INTERRES
    75   39   40 1    
    76   39  105 1    
    77   40   41 1    
    78   40   42 1    
    79   40  106 1    
    80   41  107 1    
    81   41  108 1    
    82   41  109 1    
    83   42   43 2    
    84   42   44 am   BACKBONE|DICT|INTERRES
    85   44   45 1    
    86   44  110 1    
    87   45   46 1    
    88   45   47 1    
    89   45  111 1    
    90   46  112 1    
    91   46  113 1    
    92   46  114 1    
    93   47   48 2    
    94   47   49 am   BACKBONE|DICT|INTERRES
    95   49   50 1    
    96   49  115 1    
    97   50   51 1    
    98   50   52 1    
    99   50  116 1    
   100   51  117 1    
   101   51  118 1    
   102   51  119 1    
   103   52   53 2    
   104   52   54 am   BACKBONE|DICT|INTERRES
   105   54   55 1    
   106   54  120 1    
   107   55   56 1    
   108   55   57 1    
   109   55  121 1    
   110   56  122 1    
   111   56  123 1    
   112   56  124 1    
   113   57   58 2    
   114   57   59 am   BACKBONE|DICT|INTERRES
   115   59   60 1    
   116   59  125 1    
   117   60   61 1    
   118   60   62 1    
   119   60  126 1    
   120   61  127 1    
   121   61  128 1    
   122   61  129 1    
   123   62   63 2    
   124   62   64 am   BACKBONE|DICT|INTERRES
   125   64   65 1    
   126   64  130 1    
   127   65   66 1    
   128   65   69 1    
   129   65  131 1    
   130   66   67 am   BACKBONE|DICT|INTERRES
   131   66   68 2    
   132   67  132 1    
   133   67  133 1    
   134   69   70 1    
   135   69  134 1    
   136   69  135 1    
   137   70   71 1    
   138   71  136 1    
   139   71  137 1    
@<TRIPOS>SUBSTRUCTURE
     1 UNK         1 GROUP             0       ****    0 ROOT    
