@<TRIPOS>MOLECULE
3R136
137   139    1
SMALL
USER_CHARGES


@<TRIPOS>ATOM
      1 CA         30.7188   19.6877   -0.5833 C.3       0 UNK        -0.1979 
      2 C          29.5388   20.5629   -0.1675 C.2       0 UNK         0.4864 
      3 O          28.7534   20.1410    0.6797 O.2       0 UNK        -0.5359 
      4 N          29.3603   21.7690   -0.7186 N.am      1 UNK        -0.4318 
      5 CA         30.1642   22.4458   -1.7373 C.3       1 UNK         0.0824 
      6 C6         31.5657   22.8958   -1.2251 C.3       12 UNK        -0.0944 
      7 S7         31.5011   24.1911    0.0593 S.3       12 UNK        -0.2672 
      8 C8         31.8770   23.2513    1.5718 C.3       12 UNK         0.0333 
      9 C9         31.2474   23.9159    2.7863 C.ar      12 UNK        -0.0807 
     10 C10        31.6407   25.2025    3.1646 C.ar      12 UNK        -0.0894 
     11 C11        31.0208   25.8506    4.2358 C.ar      12 UNK        -0.0804 
     12 C12        30.0330   25.1794    4.9645 C.ar      12 UNK        -0.0824 
     13 C13        29.6220   23.8963    4.5898 C.ar      12 UNK        -0.0762 
     14 C14        30.2384   23.2667    3.5039 C.ar      12 UNK        -0.0782 
     15 C15        28.4867   23.1990    5.3268 C.3       12 UNK         0.0230 
     16 S16        26.9403   23.2309    4.3583 S.3       12 UNK        -0.2608 
     17 C17        26.2320   24.8629    4.7791 C.3       12 UNK        -0.0989 
     18 CA         26.7686   26.0253    3.8997 C.3       5 UNK         0.0716 
     19 N          26.6859   25.7860    2.4580 N.am      5 UNK        -0.4135 
     20 C          25.5862   25.7462    1.6970 C.2       4 UNK         0.5031 
     21 O          24.4392   25.8093    2.1431 O.2       4 UNK        -0.5229 
     22 CA         25.8203   25.6469    0.1726 C.3       4 UNK         0.0329 
     23 CB         24.6948   26.3271   -0.6344 C.3       4 UNK        -0.2001 
     24 N          27.1335   26.1428   -0.2766 N.am      4 UNK        -0.4303 
     25 C          27.6524   27.3695   -0.0817 C.2       3 UNK         0.5044 
     26 O          27.0944   28.2459    0.5776 O.2       3 UNK        -0.5152 
     27 CA         29.0420   27.6706   -0.6758 C.3       3 UNK         0.0319 
     28 CB         30.1038   27.6729    0.4376 C.3       3 UNK        -0.2001 
     29 N          29.4423   26.7370   -1.7335 N.am      3 UNK        -0.4354 
     30 C          28.8834   26.6883   -2.9532 C.2       2 UNK         0.4964 
     31 O          28.0424   27.4972   -3.3466 O.2       2 UNK        -0.5047 
     32 CA         29.3042   25.5407   -3.8948 C.3       2 UNK         0.0288 
     33 CB         30.2725   26.0606   -4.9704 C.3       2 UNK        -0.2113 
     34 N          29.9067   24.3738   -3.2369 N.am      2 UNK        -0.4145 
     35 C          29.3233   23.6120   -2.2995 C.2       1 UNK         0.5006 
     36 O          28.1911   23.8285   -1.8525 O.2       1 UNK        -0.5103 
     37 C          26.2518   27.4167    4.3351 C.2       5 UNK         0.5055 
     38 O          25.8598   27.5848    5.4922 O.2       5 UNK        -0.5220 
     39 N          26.3077   28.4061    3.4311 N.am      6 UNK        -0.4450 
     40 CA         26.1923   29.8271    3.7617 C.3       6 UNK         0.0367 
     41 CB         25.7418   30.5950    2.5069 C.3       6 UNK        -0.1929 
     42 C          27.5458   30.3585    4.2675 C.2       6 UNK         0.5070 
     43 O          28.5615   29.6668    4.1633 O.2       6 UNK        -0.5237 
     44 N          27.5555   31.5978    4.7741 N.am      7 UNK        -0.4739 
     45 CA         28.7598   32.3195    5.2025 C.3       7 UNK         0.0276 
     46 CB         28.3472   33.4674    6.1423 C.3       7 UNK        -0.1927 
     47 C          29.5868   32.8092    3.9946 C.2       7 UNK         0.5013 
     48 O          29.6759   34.0142    3.7507 O.2       7 UNK        -0.5193 
     49 N          30.1392   31.8567    3.2393 N.am      8 UNK        -0.4253 
     50 CA         30.9272   32.0549    2.0291 C.3       8 UNK         0.0242 
     51 CB         30.0094   31.8859    0.8046 C.3       8 UNK        -0.2000 
     52 C          32.0729   31.0372    2.0002 C.2       8 UNK         0.4948 
     53 O          32.0367   30.0461    2.7355 O.2       8 UNK        -0.5275 
     54 N          33.0672   31.2984    1.1391 N.am      9 UNK        -0.4246 
     55 CA         34.2822   30.4996    0.9385 C.3       9 UNK         0.0261 
     56 CB         33.9389   29.1632    0.2377 C.3       9 UNK        -0.1959 
     57 C          35.0616   30.3439    2.2591 C.2       9 UNK         0.5033 
     58 O          35.4351   31.3566    2.8554 O.2       9 UNK        -0.5390 
     59 N          35.2488   29.0998    2.7198 N.am      10 UNK        -0.4215 
     60 CA         35.8769   28.7491    3.9974 C.3       10 UNK         0.0240 
     61 CB         36.0006   27.2188    4.0876 C.3       10 UNK        -0.1982 
     62 C          35.1438   29.2967    5.2381 C.2       10 UNK         0.4970 
     63 O          35.7783   29.4475    6.2830 O.2       10 UNK        -0.4916 
     64 N          33.8431   29.5843    5.1057 N.am      11 UNK        -0.4279 
     65 CA         32.9973   30.1700    6.1539 C.3       11 UNK         0.1003 
     66 C          32.9273   31.7241    6.0803 C.2       11 UNK         0.5709 
     67 N          33.6316   32.3903    5.1705 N.am      11 UNK        -0.7358 
     68 O          32.2228   32.3440    6.8732 O.2       11 UNK        -0.4999 
     69 C69        31.5792   29.5400    6.1617 C.3       12 UNK        -0.0954 
     70 S70        31.5816   27.7159    6.2669 S.3       12 UNK        -0.2268 
     71 C71        31.3405   27.3137    4.5069 C.3       12 UNK         0.0203 
     72 H72        31.0189   19.8447   -1.6175 H         1 UNK         0.0888 
     73 H73        31.5752   19.8796    0.0621 H         1 UNK         0.0888 
     74 H74        30.4560   18.6350   -0.4817 H         1 UNK         0.0888 
     75 H75        28.5427   22.3106   -0.4649 H         1 UNK         0.3017 
     76 H76        30.2991   21.7567   -2.5725 H         1 UNK         0.0873 
     77 H77        32.1360   22.0456   -0.8527 H         1 UNK         0.0745 
     78 H78        32.1629   23.2820   -2.0523 H         1 UNK         0.0745 
     79 H79        31.5142   22.2279    1.4707 H         1 UNK         0.0705 
     80 H80        32.9582   23.1891    1.7019 H         1 UNK         0.0705 
     81 H81        32.3932   25.7184    2.5838 H         1 UNK         0.1334 
     82 H82        29.5402   25.6816    5.7859 H         1 UNK         0.1417 
     83 H83        29.9090   22.2810    3.2026 H         1 UNK         0.1562 
     84 H84        28.3242   23.6422    6.3104 H         1 UNK         0.0748 
     85 H85        28.7645   22.1593    5.5062 H         1 UNK         0.0748 
     86 H86        26.4221   25.0573    5.8362 H         1 UNK         0.0940 
     87 H87        25.1473   24.7940    4.6798 H         1 UNK         0.0940 
     88 H88        27.8345   26.1026    4.0833 H         1 UNK         0.0703 
     89 H89        27.5740   25.7057    1.9858 H         1 UNK         0.3081 
     90 H90        25.8029   24.5823   -0.0654 H         1 UNK         0.0719 
     91 H91        24.8635   26.2314   -1.7071 H         1 UNK         0.0809 
     92 H92        24.6178   27.3895   -0.4004 H         1 UNK         0.0809 
     93 H93        23.7261   25.8747   -0.4188 H         1 UNK         0.0809 
     94 H94        27.6719   25.4784   -0.8251 H         1 UNK         0.2990 
     95 H95        29.0008   28.6734   -1.1061 H         1 UNK         0.0690 
     96 H96        31.0901   27.9170    0.0448 H         1 UNK         0.0788 
     97 H97        30.1692   26.7068    0.9382 H         1 UNK         0.0788 
     98 H98        29.8701   28.4145    1.2036 H         1 UNK         0.0788 
     99 H99        30.1329   26.0411   -1.4890 H         1 UNK         0.2993 
    100 H100       28.3948   25.1958   -4.3917 H         1 UNK         0.0949 
    101 H101       29.8445   26.9097   -5.5056 H         1 UNK         0.0767 
    102 H102       31.2169   26.3919   -4.5363 H         1 UNK         0.0767 
    103 H103       30.4930   25.2928   -5.7124 H         1 UNK         0.0767 
    104 H104       30.8416   24.1356   -3.5352 H         1 UNK         0.3013 
    105 H105       26.6552   28.2032    2.4978 H         1 UNK         0.3121 
    106 H106       25.4454   29.9611    4.5470 H         1 UNK         0.0774 
    107 H107       25.5273   31.6388    2.7380 H         1 UNK         0.0815 
    108 H108       26.5090   30.5863    1.7314 H         1 UNK         0.0815 
    109 H109       24.8340   30.1655    2.0827 H         1 UNK         0.0815 
    110 H110       26.6896   32.1174    4.8003 H         1 UNK         0.2987 
    111 H111       29.3928   31.6391    5.7760 H         1 UNK         0.0949 
    112 H112       29.2240   34.0107    6.4981 H         1 UNK         0.0806 
    113 H113       27.6964   34.1870    5.6440 H         1 UNK         0.0806 
    114 H114       27.8233   33.0918    7.0213 H         1 UNK         0.0806 
    115 H115       30.0024   30.8852    3.5094 H         1 UNK         0.3010 
    116 H116       31.3626   33.0565    2.0301 H         1 UNK         0.0829 
    117 H117       29.2025   32.6189    0.8125 H         1 UNK         0.0813 
    118 H118       30.5596   32.0216   -0.1272 H         1 UNK         0.0813 
    119 H119       29.5563   30.8938    0.7762 H         1 UNK         0.0813 
    120 H120       33.0197   32.1532    0.6022 H         1 UNK         0.3038 
    121 H121       34.9268   31.0706    0.2686 H         1 UNK         0.0769 
    122 H122       34.8409   28.6014   -0.0087 H         1 UNK         0.0811 
    123 H123       33.4130   29.3410   -0.7005 H         1 UNK         0.0811 
    124 H124       33.3017   28.5243    0.8501 H         1 UNK         0.0811 
    125 H125       34.8883   28.3349    2.1685 H         1 UNK         0.3204 
    126 H126       36.8811   29.1780    3.9990 H         1 UNK         0.0748 
    127 H127       36.4969   26.9210    5.0126 H         1 UNK         0.0771 
    128 H128       35.0235   26.7334    4.0725 H         1 UNK         0.0771 
    129 H129       36.5903   26.8170    3.2634 H         1 UNK         0.0771 
    130 H130       33.3968   29.4885    4.2001 H         1 UNK         0.2980 
    131 H131       33.4432   29.9474    7.1246 H         1 UNK         0.0545 
    132 H132       34.2282   31.9068    4.5103 H         1 UNK         0.3459 
    133 H133       33.5758   33.3956    5.1509 H         1 UNK         0.3459 
    134 H134       31.0246   29.8494    5.2758 H         1 UNK         0.0616 
    135 H135       31.0077   29.9098    7.0145 H         1 UNK         0.0616 
    136 H136       30.5203   27.9092    4.1061 H         1 UNK         0.0634 
    137 H137       32.2342   27.6135    3.9591 H         1 UNK         0.0634 
@<TRIPOS>BOND
     1    1    2 1    
     2    1   72 1    
     3    1   73 1    
     4    1   74 1    
     5    2    3 2    
     6    2    4 am   BACKBONE|DICT|INTERRES
     7    4    5 1    
     8    4   75 1    
     9    5    6 1    
    10    5   35 1    
    11    5   76 1    
    12    6    7 1    
    13    6   77 1    
    14    6   78 1    
    15    7    8 1    
    16    8    9 1    
    17    8   79 1    
    18    8   80 1    
    19    9   10 ar   
    20    9   14 ar   
    21   10   11 ar   
    22   10   81 1    
    23   11   12 ar   
    24   11   71 1    
    25   12   13 ar   
    26   12   82 1    
    27   13   14 ar   
    28   13   15 1    
    29   14   83 1    
    30   15   16 1    
    31   15   84 1    
    32   15   85 1    
    33   16   17 1    
    34   17   18 1    
    35   17   86 1    
    36   17   87 1    
    37   18   19 1    
    38   18   37 1    
    39   18   88 1    
    40   19   20 am   BACKBONE|DICT|INTERRES
    41   19   89 1    
    42   20   21 2    
    43   20   22 1    
    44   22   23 1    
    45   22   24 1    
    46   22   90 1    
    47   23   91 1    
    48   23   92 1    
    49   23   93 1    
    50   24   25 am   BACKBONE|DICT|INTERRES
    51   24   94 1    
    52   25   26 2    
    53   25   27 1    
    54   27   28 1    
    55   27   29 1    
    56   27   95 1    
    57   28   96 1    
    58   28   97 1    
    59   28   98 1    
    60   29   30 am   BACKBONE|DICT|INTERRES
    61   29   99 1    
    62   30   31 2    
    63   30   32 1    
    64   32   33 1    
    65   32   34 1    
    66   32  100 1    
    67   33  101 1    
    68   33  102 1    
    69   33  103 1    
    70   34   35 am   BACKBONE|DICT|INTERRES
    71   34  104 1    
    72   35   36 2    
    73   37   38 2    
    74   37   39 am   BACKBONE|DICT|INTERRES
    75   39   40 1    
    76   39  105 1    
    77   40   41 1    
    78   40   42 1    
    79   40  106 1    
    80   41  107 1    
    81   41  108 1    
    82   41  109 1    
    83   42   43 2    
    84   42   44 am   BACKBONE|DICT|INTERRES
    85   44   45 1    
    86   44  110 1    
    87   45   46 1    
    88   45   47 1    
    89   45  111 1    
    90   46  112 1    
    91   46  113 1    
    92   46  114 1    
    93   47   48 2    
    94   47   49 am   BACKBONE|DICT|INTERRES
    95   49   50 1    
    96   49  115 1    
    97   50   51 1    
    98   50   52 1    
    99   50  116 1    
   100   51  117 1    
   101   51  118 1    
   102   51  119 1    
   103   52   53 2    
   104   52   54 am   BACKBONE|DICT|INTERRES
   105   54   55 1    
   106   54  120 1    
   107   55   56 1    
   108   55   57 1    
   109   55  121 1    
   110   56  122 1    
   111   56  123 1    
   112   56  124 1    
   113   57   58 2    
   114   57   59 am   BACKBONE|DICT|INTERRES
   115   59   60 1    
   116   59  125 1    
   117   60   61 1    
   118   60   62 1    
   119   60  126 1    
   120   61  127 1    
   121   61  128 1    
   122   61  129 1    
   123   62   63 2    
   124   62   64 am   BACKBONE|DICT|INTERRES
   125   64   65 1    
   126   64  130 1    
   127   65   66 1    
   128   65   69 1    
   129   65  131 1    
   130   66   67 am   BACKBONE|DICT|INTERRES
   131   66   68 2    
   132   67  132 1    
   133   67  133 1    
   134   69   70 1    
   135   69  134 1    
   136   69  135 1    
   137   70   71 1    
   138   71  136 1    
   139   71  137 1    
@<TRIPOS>SUBSTRUCTURE
     1 UNK         1 GROUP             0       ****    0 ROOT    
