@<TRIPOS>MOLECULE
3R136
137   139    1
SMALL
USER_CHARGES


@<TRIPOS>ATOM
      1 CA         28.4065   22.5955   -1.7465 C.3       0 UNK        -0.1979 
      2 C          28.6223   23.2642   -0.3976 C.2       0 UNK         0.4864 
      3 O          27.9979   24.2871   -0.1072 O.2       0 UNK        -0.5359 
      4 N          29.5009   22.6806    0.4281 N.am      1 UNK        -0.4318 
      5 CA         29.9401   23.1950    1.7330 C.3       1 UNK         0.0824 
      6 C6         31.0426   22.3086    2.3744 C.3       12 UNK        -0.0944 
      7 S7         32.3242   21.7395    1.2021 S.3       12 UNK        -0.2672 
      8 C8         33.6354   22.9839    1.4193 C.3       12 UNK         0.0333 
      9 C9         33.2299   24.3653    0.9200 C.ar      12 UNK        -0.0807 
     10 C10        33.3436   25.4731    1.7653 C.ar      12 UNK        -0.0894 
     11 C11        33.0024   26.7505    1.3117 C.ar      12 UNK        -0.0804 
     12 C12        32.5566   26.9167   -0.0016 C.ar      12 UNK        -0.0824 
     13 C13        32.4296   25.8177   -0.8567 C.ar      12 UNK        -0.0762 
     14 C14        32.7732   24.5450   -0.3914 C.ar      12 UNK        -0.0782 
     15 C15        31.9406   26.0106   -2.2870 C.3       12 UNK         0.0230 
     16 S16        30.1282   25.8713   -2.4213 S.3       12 UNK        -0.2608 
     17 C17        29.5954   27.2964   -1.4189 C.3       12 UNK        -0.0989 
     18 CA         28.1585   27.7823   -1.7368 C.3       5 UNK         0.0716 
     19 N          27.1598   26.7604   -1.3999 N.am      5 UNK        -0.4135 
     20 C          25.9179   26.6850   -1.8965 C.2       4 UNK         0.5031 
     21 O          25.4956   27.4074   -2.7995 O.2       4 UNK        -0.5229 
     22 CA         24.9587   25.6949   -1.2108 C.3       4 UNK         0.0329 
     23 CB         24.9748   24.3239   -1.9006 C.3       4 UNK        -0.2001 
     24 N          25.2436   25.5475    0.2230 N.am      4 UNK        -0.4303 
     25 C          24.9849   26.4978    1.1332 C.2       3 UNK         0.5044 
     26 O          24.4576   27.5706    0.8345 O.2       3 UNK        -0.5152 
     27 CA         25.4048   26.2718    2.6007 C.3       3 UNK         0.0319 
     28 CB         24.2301   26.5246    3.5686 C.3       3 UNK        -0.2001 
     29 N          26.0662   24.9964    2.9049 N.am      3 UNK        -0.4354 
     30 C          25.5543   23.7591    2.8778 C.2       2 UNK         0.4964 
     31 O          24.4202   23.4942    2.4771 O.2       2 UNK        -0.5047 
     32 CA         26.4836   22.6323    3.3765 C.3       2 UNK         0.0288 
     33 CB         25.8101   21.2472    3.3393 C.3       2 UNK        -0.2113 
     34 N          27.7291   22.5685    2.6097 N.am      2 UNK        -0.4145 
     35 C          28.7791   23.3953    2.7313 C.2       1 UNK         0.5006 
     36 O          28.8383   24.2994    3.5664 O.2       1 UNK        -0.5103 
     37 C          27.8939   29.1459   -1.0443 C.2       5 UNK         0.5055 
     38 O          28.7536   30.0240   -1.1343 O.2       5 UNK        -0.5220 
     39 N          26.7524   29.3112   -0.3549 N.am      6 UNK        -0.4450 
     40 CA         26.4023   30.4262    0.5312 C.3       6 UNK         0.0367 
     41 CB         26.3815   31.7863   -0.2063 C.3       6 UNK        -0.1929 
     42 C          27.2759   30.3797    1.7972 C.2       6 UNK         0.5070 
     43 O          27.2258   29.3706    2.5059 O.2       6 UNK        -0.5237 
     44 N          28.0452   31.4390    2.0767 N.am      7 UNK        -0.4739 
     45 CA         28.9477   31.5155    3.2220 C.3       7 UNK         0.0276 
     46 CB         28.2273   32.1845    4.4058 C.3       7 UNK        -0.1927 
     47 C          30.2128   32.2880    2.8381 C.2       7 UNK         0.5013 
     48 O          30.1747   33.1377    1.9444 O.2       7 UNK        -0.5193 
     49 N          31.2948   31.9888    3.5570 N.am      8 UNK        -0.4253 
     50 CA         32.6205   32.5926    3.4877 C.3       8 UNK         0.0242 
     51 CB         33.3676   32.1087    2.2300 C.3       8 UNK        -0.2000 
     52 C          33.3549   32.1848    4.7730 C.2       8 UNK         0.4948 
     53 O          32.8166   31.3934    5.5523 O.2       8 UNK        -0.5275 
     54 N          34.5801   32.6856    4.9747 N.am      9 UNK        -0.4246 
     55 CA         35.3940   32.4640    6.1817 C.3       9 UNK         0.0261 
     56 CB         36.7335   33.2035    6.0261 C.3       9 UNK        -0.1959 
     57 C          35.6411   30.9891    6.5696 C.2       9 UNK         0.5033 
     58 O          35.8861   30.7142    7.7453 O.2       9 UNK        -0.5390 
     59 N          35.5678   30.0772    5.5914 N.am      10 UNK        -0.4215 
     60 CA         35.7476   28.6357    5.7667 C.3       10 UNK         0.0240 
     61 CB         36.5898   28.1064    4.5911 C.3       10 UNK        -0.1982 
     62 C          34.4284   27.8454    5.9005 C.2       10 UNK         0.4970 
     63 O          34.5063   26.6272    6.0683 O.2       10 UNK        -0.4916 
     64 N          33.2570   28.4950    5.8097 N.am      11 UNK        -0.4279 
     65 CA         31.9465   27.8110    5.8199 C.3       11 UNK         0.1003 
     66 C          30.7690   28.5991    6.4595 C.2       11 UNK         0.5709 
     67 N          30.8988   29.8789    6.7791 N.am      11 UNK        -0.7358 
     68 O          29.7147   28.0207    6.7121 O.2       11 UNK        -0.4999 
     69 C69        31.5779   27.1907    4.4413 C.3       12 UNK        -0.0954 
     70 S70        31.5869   28.3871    3.0598 S.3       12 UNK        -0.2268 
     71 C71        33.1459   27.9617    2.2204 C.3       12 UNK         0.0203 
     72 H72        29.2397   21.9439   -2.0094 H         1 UNK         0.0888 
     73 H73        27.4961   21.9975   -1.7307 H         1 UNK         0.0888 
     74 H74        28.3125   23.3475   -2.5294 H         1 UNK         0.0888 
     75 H75        29.9901   21.8514    0.1209 H         1 UNK         0.3017 
     76 H76        30.3660   24.1832    1.5453 H         1 UNK         0.0873 
     77 H77        31.5199   22.8391    3.2008 H         1 UNK         0.0745 
     78 H78        30.6022   21.4097    2.8112 H         1 UNK         0.0745 
     79 H79        34.5184   22.6601    0.8670 H         1 UNK         0.0705 
     80 H80        33.9255   23.0136    2.4708 H         1 UNK         0.0705 
     81 H81        33.7110   25.3429    2.7739 H         1 UNK         0.1334 
     82 H82        32.3062   27.9072   -0.3552 H         1 UNK         0.1417 
     83 H83        32.6844   23.6914   -1.0496 H         1 UNK         0.1562 
     84 H84        32.3979   25.2644   -2.9384 H         1 UNK         0.0748 
     85 H85        32.2612   26.9807   -2.6699 H         1 UNK         0.0748 
     86 H86        30.3143   28.0969   -1.6008 H         1 UNK         0.0940 
     87 H87        29.6848   27.0342   -0.3624 H         1 UNK         0.0940 
     88 H88        28.0992   27.9716   -2.8106 H         1 UNK         0.0703 
     89 H89        27.4479   26.0540   -0.7267 H         1 UNK         0.3081 
     90 H90        23.9489   26.0991   -1.3113 H         1 UNK         0.0719 
     91 H91        25.9581   23.8629   -1.8561 H         1 UNK         0.0809 
     92 H92        24.2608   23.6398   -1.4418 H         1 UNK         0.0809 
     93 H93        24.7067   24.4159   -2.9540 H         1 UNK         0.0809 
     94 H94        25.7343   24.7131    0.5154 H         1 UNK         0.2990 
     95 H95        26.1588   27.0309    2.8058 H         1 UNK         0.0690 
     96 H96        24.5435   26.4255    4.6078 H         1 UNK         0.0788 
     97 H97        23.4063   25.8312    3.3972 H         1 UNK         0.0788 
     98 H98        23.8338   27.5336    3.4481 H         1 UNK         0.0788 
     99 H99        27.0344   25.0731    3.2045 H         1 UNK         0.2993 
    100 H100       26.7264   22.8561    4.4177 H         1 UNK         0.0949 
    101 H101       25.5403   20.9556    2.3234 H         1 UNK         0.0767 
    102 H102       26.4647   20.4768    3.7473 H         1 UNK         0.0767 
    103 H103       24.8961   21.2407    3.9349 H         1 UNK         0.0767 
    104 H104       27.7629   21.8826    1.8697 H         1 UNK         0.3013 
    105 H105       26.1083   28.5315   -0.3084 H         1 UNK         0.3121 
    106 H106       25.3828   30.2308    0.8676 H         1 UNK         0.0774 
    107 H107       25.9984   32.5740    0.4439 H         1 UNK         0.0815 
    108 H108       27.3680   32.0982   -0.5492 H         1 UNK         0.0815 
    109 H109       25.7277   31.7470   -1.0775 H         1 UNK         0.0815 
    110 H110       28.1123   32.2092    1.4201 H         1 UNK         0.2987 
    111 H111       29.2533   30.5077    3.5155 H         1 UNK         0.0949 
    112 H112       27.9026   33.1961    4.1594 H         1 UNK         0.0806 
    113 H113       27.3485   31.6139    4.7069 H         1 UNK         0.0806 
    114 H114       28.8812   32.2524    5.2763 H         1 UNK         0.0806 
    115 H115       31.2199   31.3134    4.3090 H         1 UNK         0.3010 
    116 H116       32.5177   33.6794    3.4718 H         1 UNK         0.0829 
    117 H117       32.8107   32.3363    1.3210 H         1 UNK         0.0813 
    118 H118       34.3412   32.5904    2.1351 H         1 UNK         0.0813 
    119 H119       33.5356   31.0332    2.2560 H         1 UNK         0.0813 
    120 H120       34.9637   33.3165    4.2853 H         1 UNK         0.3038 
    121 H121       34.8525   32.9175    7.0146 H         1 UNK         0.0769 
    122 H122       37.3074   32.8244    5.1796 H         1 UNK         0.0811 
    123 H123       37.3519   33.0857    6.9173 H         1 UNK         0.0811 
    124 H124       36.5840   34.2734    5.8803 H         1 UNK         0.0811 
    125 H125       35.3560   30.4005    4.6589 H         1 UNK         0.3204 
    126 H126       36.3113   28.4468    6.6825 H         1 UNK         0.0748 
    127 H127       36.7552   27.0311    4.6723 H         1 UNK         0.0771 
    128 H128       36.1127   28.2921    3.6293 H         1 UNK         0.0771 
    129 H129       37.5723   28.5783    4.5695 H         1 UNK         0.0771 
    130 H130       33.2373   29.5036    5.7028 H         1 UNK         0.2980 
    131 H131       32.0476   26.9694    6.5080 H         1 UNK         0.0545 
    132 H132       31.7255   30.4135    6.5252 H         1 UNK         0.3459 
    133 H133       30.1254   30.3442    7.2249 H         1 UNK         0.3459 
    134 H134       30.5935   26.7201    4.4758 H         1 UNK         0.0616 
    135 H135       32.2676   26.3780    4.2206 H         1 UNK         0.0616 
    136 H136       33.9265   27.7921    2.9604 H         1 UNK         0.0634 
    137 H137       33.4706   28.8165    1.6272 H         1 UNK         0.0634 
@<TRIPOS>BOND
     1    1    2 1    
     2    1   72 1    
     3    1   73 1    
     4    1   74 1    
     5    2    3 2    
     6    2    4 am   BACKBONE|DICT|INTERRES
     7    4    5 1    
     8    4   75 1    
     9    5    6 1    
    10    5   35 1    
    11    5   76 1    
    12    6    7 1    
    13    6   77 1    
    14    6   78 1    
    15    7    8 1    
    16    8    9 1    
    17    8   79 1    
    18    8   80 1    
    19    9   10 ar   
    20    9   14 ar   
    21   10   11 ar   
    22   10   81 1    
    23   11   12 ar   
    24   11   71 1    
    25   12   13 ar   
    26   12   82 1    
    27   13   14 ar   
    28   13   15 1    
    29   14   83 1    
    30   15   16 1    
    31   15   84 1    
    32   15   85 1    
    33   16   17 1    
    34   17   18 1    
    35   17   86 1    
    36   17   87 1    
    37   18   19 1    
    38   18   37 1    
    39   18   88 1    
    40   19   20 am   BACKBONE|DICT|INTERRES
    41   19   89 1    
    42   20   21 2    
    43   20   22 1    
    44   22   23 1    
    45   22   24 1    
    46   22   90 1    
    47   23   91 1    
    48   23   92 1    
    49   23   93 1    
    50   24   25 am   BACKBONE|DICT|INTERRES
    51   24   94 1    
    52   25   26 2    
    53   25   27 1    
    54   27   28 1    
    55   27   29 1    
    56   27   95 1    
    57   28   96 1    
    58   28   97 1    
    59   28   98 1    
    60   29   30 am   BACKBONE|DICT|INTERRES
    61   29   99 1    
    62   30   31 2    
    63   30   32 1    
    64   32   33 1    
    65   32   34 1    
    66   32  100 1    
    67   33  101 1    
    68   33  102 1    
    69   33  103 1    
    70   34   35 am   BACKBONE|DICT|INTERRES
    71   34  104 1    
    72   35   36 2    
    73   37   38 2    
    74   37   39 am   BACKBONE|DICT|INTERRES
    75   39   40 1    
    76   39  105 1    
    77   40   41 1    
    78   40   42 1    
    79   40  106 1    
    80   41  107 1    
    81   41  108 1    
    82   41  109 1    
    83   42   43 2    
    84   42   44 am   BACKBONE|DICT|INTERRES
    85   44   45 1    
    86   44  110 1    
    87   45   46 1    
    88   45   47 1    
    89   45  111 1    
    90   46  112 1    
    91   46  113 1    
    92   46  114 1    
    93   47   48 2    
    94   47   49 am   BACKBONE|DICT|INTERRES
    95   49   50 1    
    96   49  115 1    
    97   50   51 1    
    98   50   52 1    
    99   50  116 1    
   100   51  117 1    
   101   51  118 1    
   102   51  119 1    
   103   52   53 2    
   104   52   54 am   BACKBONE|DICT|INTERRES
   105   54   55 1    
   106   54  120 1    
   107   55   56 1    
   108   55   57 1    
   109   55  121 1    
   110   56  122 1    
   111   56  123 1    
   112   56  124 1    
   113   57   58 2    
   114   57   59 am   BACKBONE|DICT|INTERRES
   115   59   60 1    
   116   59  125 1    
   117   60   61 1    
   118   60   62 1    
   119   60  126 1    
   120   61  127 1    
   121   61  128 1    
   122   61  129 1    
   123   62   63 2    
   124   62   64 am   BACKBONE|DICT|INTERRES
   125   64   65 1    
   126   64  130 1    
   127   65   66 1    
   128   65   69 1    
   129   65  131 1    
   130   66   67 am   BACKBONE|DICT|INTERRES
   131   66   68 2    
   132   67  132 1    
   133   67  133 1    
   134   69   70 1    
   135   69  134 1    
   136   69  135 1    
   137   70   71 1    
   138   71  136 1    
   139   71  137 1    
@<TRIPOS>SUBSTRUCTURE
     1 UNK         1 GROUP             0       ****    0 ROOT    
