@<TRIPOS>MOLECULE
3R136
137   139    1
SMALL
USER_CHARGES


@<TRIPOS>ATOM
      1 CA         33.5637   25.3649   -0.8382 C.3       0 UNK        -0.1979 
      2 C          32.1008   25.6091   -0.5010 C.2       0 UNK         0.4864 
      3 O          31.5580   26.6505   -0.8671 O.2       0 UNK        -0.5359 
      4 N          31.4648   24.6599    0.2017 N.am      1 UNK        -0.4318 
      5 CA         30.0729   24.7262    0.6752 C.3       1 UNK         0.0824 
      6 C6         29.7130   23.5427    1.6110 C.3       12 UNK        -0.0944 
      7 S7         30.9579   23.2503    2.9148 S.3       12 UNK        -0.2672 
      8 C8         29.9385   23.0877    4.4129 C.3       12 UNK         0.0333 
      9 C9         29.5176   24.4321    4.9910 C.ar      12 UNK        -0.0807 
     10 C10        30.4806   25.2998    5.5181 C.ar      12 UNK        -0.0894 
     11 C11        30.1039   26.5021    6.1282 C.ar      12 UNK        -0.0804 
     12 C12        28.7468   26.8278    6.2019 C.ar      12 UNK        -0.0824 
     13 C13        27.7725   25.9763    5.6696 C.ar      12 UNK        -0.0762 
     14 C14        28.1650   24.7815    5.0584 C.ar      12 UNK        -0.0782 
     15 C15        26.2962   26.3231    5.8164 C.3       12 UNK         0.0230 
     16 S16        25.8872   27.9361    5.0761 S.3       12 UNK        -0.2608 
     17 C17        25.2664   27.4906    3.4165 C.3       12 UNK        -0.0989 
     18 CA         26.3469   27.4910    2.2977 C.3       5 UNK         0.0716 
     19 N          25.8758   26.8792    1.0506 N.am      5 UNK        -0.4135 
     20 C          24.8547   27.3096    0.2908 C.2       4 UNK         0.5031 
     21 O          24.1190   28.2499    0.5915 O.2       4 UNK        -0.5229 
     22 CA         24.6030   26.5862   -1.0399 C.3       4 UNK         0.0329 
     23 CB         25.1973   27.4041   -2.1993 C.3       4 UNK        -0.2001 
     24 N          25.1936   25.2488   -1.0654 N.am      4 UNK        -0.4303 
     25 C          24.5216   24.0940   -1.1738 C.2       3 UNK         0.5044 
     26 O          23.2917   24.0180   -1.1804 O.2       3 UNK        -0.5152 
     27 CA         25.3656   22.8025   -1.2963 C.3       3 UNK         0.0319 
     28 CB         24.7017   21.7453   -2.2040 C.3       3 UNK        -0.2001 
     29 N          26.7577   23.0502   -1.7031 N.am      3 UNK        -0.4354 
     30 C          27.1843   23.6385   -2.8332 C.2       2 UNK         0.4964 
     31 O          26.4530   23.8810   -3.7940 O.2       2 UNK        -0.5047 
     32 CA         28.6621   24.0821   -2.8832 C.3       2 UNK         0.0288 
     33 CB         28.8191   25.4517   -3.5785 C.3       2 UNK        -0.2113 
     34 N          29.3600   24.1072   -1.5870 N.am      2 UNK        -0.4145 
     35 C          29.0558   24.8112   -0.4816 C.2       1 UNK         0.5006 
     36 O          28.0294   25.4837   -0.3407 O.2       1 UNK        -0.5103 
     37 C          26.9773   28.8703    2.0011 C.2       5 UNK         0.5055 
     38 O          26.5546   29.8942    2.5435 O.2       5 UNK        -0.5220 
     39 N          28.0023   28.8745    1.1357 N.am      6 UNK        -0.4450 
     40 CA         28.8515   30.0353    0.8457 C.3       6 UNK         0.0367 
     41 CB         29.5382   29.8246   -0.5159 C.3       6 UNK        -0.1929 
     42 C          29.8631   30.2519    1.9882 C.2       6 UNK         0.5070 
     43 O          31.0701   30.1139    1.7835 O.2       6 UNK        -0.5237 
     44 N          29.3392   30.5240    3.1912 N.am      7 UNK        -0.4739 
     45 CA         30.0247   30.4270    4.4836 C.3       7 UNK         0.0276 
     46 CB         29.0712   30.8647    5.6056 C.3       7 UNK        -0.1927 
     47 C          31.3679   31.1663    4.5885 C.2       7 UNK         0.5013 
     48 O          32.3048   30.6288    5.1786 O.2       7 UNK        -0.5193 
     49 N          31.4437   32.3579    3.9810 N.am      8 UNK        -0.4253 
     50 CA         32.6428   33.1994    3.9313 C.3       8 UNK         0.0242 
     51 CB         32.2620   34.5846    3.3831 C.3       8 UNK        -0.2000 
     52 C          33.8036   32.5985    3.1151 C.2       8 UNK         0.4948 
     53 O          34.9529   32.9686    3.3587 O.2       8 UNK        -0.5275 
     54 N          33.4929   31.7048    2.1666 N.am      9 UNK        -0.4246 
     55 CA         34.4712   30.9567    1.3767 C.3       9 UNK         0.0261 
     56 CB         34.0120   30.9130   -0.0908 C.3       9 UNK        -0.1959 
     57 C          34.6464   29.5320    1.9225 C.2       9 UNK         0.5033 
     58 O          35.7680   29.0233    1.9351 O.2       9 UNK        -0.5390 
     59 N          33.5364   28.9079    2.3383 N.am      10 UNK        -0.4215 
     60 CA         33.4679   27.5191    2.7875 C.3       10 UNK         0.0240 
     61 CB         31.9950   27.0934    2.8400 C.3       10 UNK        -0.1982 
     62 C          34.1630   27.2495    4.1324 C.2       10 UNK         0.4970 
     63 O          34.7201   26.1634    4.2980 O.2       10 UNK        -0.4916 
     64 N          34.1204   28.2174    5.0559 N.am      11 UNK        -0.4279 
     65 CA         34.7495   28.1470    6.3833 C.3       11 UNK         0.1003 
     66 C          35.7813   29.2913    6.5612 C.2       11 UNK         0.5709 
     67 N          36.7101   29.1429    7.4965 N.am      11 UNK        -0.7358 
     68 O          35.7464   30.3159    5.8822 O.2       11 UNK        -0.4999 
     69 C69        33.6977   28.1613    7.5278 C.3       12 UNK        -0.0954 
     70 S70        32.5722   26.7233    7.4867 S.3       12 UNK        -0.2268 
     71 C71        31.1373   27.4876    6.6689 C.3       12 UNK         0.0203 
     72 H72        33.6923   25.2946   -1.9179 H         1 UNK         0.0888 
     73 H73        34.1738   26.1918   -0.4755 H         1 UNK         0.0888 
     74 H74        33.9382   24.4453   -0.3890 H         1 UNK         0.0888 
     75 H75        31.9764   23.8416    0.5019 H         1 UNK         0.3017 
     76 H76        29.9696   25.6479    1.2493 H         1 UNK         0.0873 
     77 H77        29.6179   22.6138    1.0450 H         1 UNK         0.0745 
     78 H78        28.7399   23.7178    2.0742 H         1 UNK         0.0745 
     79 H79        29.0735   22.4582    4.1983 H         1 UNK         0.0705 
     80 H80        30.5190   22.5542    5.1669 H         1 UNK         0.0705 
     81 H81        31.5264   25.0321    5.4528 H         1 UNK         0.1334 
     82 H82        28.4413   27.7515    6.6745 H         1 UNK         0.1417 
     83 H83        27.4158   24.1078    4.6652 H         1 UNK         0.1562 
     84 H84        26.0598   26.3652    6.8805 H         1 UNK         0.0748 
     85 H85        25.6595   25.5424    5.3983 H         1 UNK         0.0748 
     86 H86        24.4658   28.1905    3.1720 H         1 UNK         0.0940 
     87 H87        24.7888   26.5116    3.4700 H         1 UNK         0.0940 
     88 H88        27.1639   26.8558    2.6449 H         1 UNK         0.0703 
     89 H89        26.4673   26.1457    0.6759 H         1 UNK         0.3081 
     90 H90        23.5216   26.5276   -1.1794 H         1 UNK         0.0719 
     91 H91        24.7575   28.4016   -2.2410 H         1 UNK         0.0809 
     92 H92        26.2764   27.5265   -2.0959 H         1 UNK         0.0809 
     93 H93        25.0063   26.9248   -3.1599 H         1 UNK         0.0809 
     94 H94        26.2075   25.2082   -1.0469 H         1 UNK         0.2990 
     95 H95        25.4165   22.3851   -0.2896 H         1 UNK         0.0690 
     96 H96        25.3118   20.8450   -2.2765 H         1 UNK         0.0788 
     97 H97        24.5373   22.1220   -3.2138 H         1 UNK         0.0788 
     98 H98        23.7303   21.4451   -1.8094 H         1 UNK         0.0788 
     99 H99        27.4507   22.8800   -0.9885 H         1 UNK         0.2993 
    100 H100       29.1750   23.3375   -3.4939 H         1 UNK         0.0949 
    101 H101       28.2776   26.2365   -3.0494 H         1 UNK         0.0767 
    102 H102       29.8663   25.7499   -3.6335 H         1 UNK         0.0767 
    103 H103       28.4387   25.4246   -4.6004 H         1 UNK         0.0767 
    104 H104       30.2187   23.5748   -1.5583 H         1 UNK         0.3013 
    105 H105       28.2878   27.9990    0.7196 H         1 UNK         0.3121 
    106 H106       28.2302   30.9307    0.7755 H         1 UNK         0.0774 
    107 H107       30.1796   28.9425   -0.5129 H         1 UNK         0.0815 
    108 H108       28.8076   29.7049   -1.3158 H         1 UNK         0.0815 
    109 H109       30.1644   30.6798   -0.7732 H         1 UNK         0.0815 
    110 H110       28.3264   30.5922    3.2301 H         1 UNK         0.2987 
    111 H111       30.2287   29.3677    4.6219 H         1 UNK         0.0949 
    112 H112       28.1682   30.2535    5.6195 H         1 UNK         0.0806 
    113 H113       29.5443   30.7627    6.5834 H         1 UNK         0.0806 
    114 H114       28.7691   31.9067    5.4946 H         1 UNK         0.0806 
    115 H115       30.6211   32.7000    3.5055 H         1 UNK         0.3010 
    116 H116       33.0018   33.3230    4.9555 H         1 UNK         0.0829 
    117 H117       31.8745   34.5235    2.3653 H         1 UNK         0.0813 
    118 H118       33.1283   35.2476    3.3623 H         1 UNK         0.0813 
    119 H119       31.5053   35.0642    4.0043 H         1 UNK         0.0813 
    120 H120       32.5210   31.4352    2.0507 H         1 UNK         0.3038 
    121 H121       35.4447   31.4505    1.4107 H         1 UNK         0.0769 
    122 H122       33.9266   31.9164   -0.5079 H         1 UNK         0.0811 
    123 H123       33.0439   30.4218   -0.2005 H         1 UNK         0.0811 
    124 H124       34.7268   30.3654   -0.7065 H         1 UNK         0.0811 
    125 H125       32.6439   29.3869    2.2269 H         1 UNK         0.3204 
    126 H126       33.9673   26.9073    2.0335 H         1 UNK         0.0748 
    127 H127       31.4394   27.6392    3.5991 H         1 UNK         0.0771 
    128 H128       31.5012   27.2745    1.8865 H         1 UNK         0.0771 
    129 H129       31.9054   26.0313    3.0639 H         1 UNK         0.0771 
    130 H130       33.6683   29.1012    4.8444 H         1 UNK         0.2980 
    131 H131       35.3159   27.2177    6.4668 H         1 UNK         0.0545 
    132 H132       36.7508   28.3120    8.0661 H         1 UNK         0.3459 
    133 H133       37.3864   29.8777    7.6338 H         1 UNK         0.3459 
    134 H134       33.1164   29.0852    7.5042 H         1 UNK         0.0616 
    135 H135       34.1947   28.1457    8.4993 H         1 UNK         0.0616 
    136 H136       30.6751   28.1855    7.3688 H         1 UNK         0.0634 
    137 H137       31.5068   28.0814    5.8386 H         1 UNK         0.0634 
@<TRIPOS>BOND
     1    1    2 1    
     2    1   72 1    
     3    1   73 1    
     4    1   74 1    
     5    2    3 2    
     6    2    4 am   BACKBONE|DICT|INTERRES
     7    4    5 1    
     8    4   75 1    
     9    5    6 1    
    10    5   35 1    
    11    5   76 1    
    12    6    7 1    
    13    6   77 1    
    14    6   78 1    
    15    7    8 1    
    16    8    9 1    
    17    8   79 1    
    18    8   80 1    
    19    9   10 ar   
    20    9   14 ar   
    21   10   11 ar   
    22   10   81 1    
    23   11   12 ar   
    24   11   71 1    
    25   12   13 ar   
    26   12   82 1    
    27   13   14 ar   
    28   13   15 1    
    29   14   83 1    
    30   15   16 1    
    31   15   84 1    
    32   15   85 1    
    33   16   17 1    
    34   17   18 1    
    35   17   86 1    
    36   17   87 1    
    37   18   19 1    
    38   18   37 1    
    39   18   88 1    
    40   19   20 am   BACKBONE|DICT|INTERRES
    41   19   89 1    
    42   20   21 2    
    43   20   22 1    
    44   22   23 1    
    45   22   24 1    
    46   22   90 1    
    47   23   91 1    
    48   23   92 1    
    49   23   93 1    
    50   24   25 am   BACKBONE|DICT|INTERRES
    51   24   94 1    
    52   25   26 2    
    53   25   27 1    
    54   27   28 1    
    55   27   29 1    
    56   27   95 1    
    57   28   96 1    
    58   28   97 1    
    59   28   98 1    
    60   29   30 am   BACKBONE|DICT|INTERRES
    61   29   99 1    
    62   30   31 2    
    63   30   32 1    
    64   32   33 1    
    65   32   34 1    
    66   32  100 1    
    67   33  101 1    
    68   33  102 1    
    69   33  103 1    
    70   34   35 am   BACKBONE|DICT|INTERRES
    71   34  104 1    
    72   35   36 2    
    73   37   38 2    
    74   37   39 am   BACKBONE|DICT|INTERRES
    75   39   40 1    
    76   39  105 1    
    77   40   41 1    
    78   40   42 1    
    79   40  106 1    
    80   41  107 1    
    81   41  108 1    
    82   41  109 1    
    83   42   43 2    
    84   42   44 am   BACKBONE|DICT|INTERRES
    85   44   45 1    
    86   44  110 1    
    87   45   46 1    
    88   45   47 1    
    89   45  111 1    
    90   46  112 1    
    91   46  113 1    
    92   46  114 1    
    93   47   48 2    
    94   47   49 am   BACKBONE|DICT|INTERRES
    95   49   50 1    
    96   49  115 1    
    97   50   51 1    
    98   50   52 1    
    99   50  116 1    
   100   51  117 1    
   101   51  118 1    
   102   51  119 1    
   103   52   53 2    
   104   52   54 am   BACKBONE|DICT|INTERRES
   105   54   55 1    
   106   54  120 1    
   107   55   56 1    
   108   55   57 1    
   109   55  121 1    
   110   56  122 1    
   111   56  123 1    
   112   56  124 1    
   113   57   58 2    
   114   57   59 am   BACKBONE|DICT|INTERRES
   115   59   60 1    
   116   59  125 1    
   117   60   61 1    
   118   60   62 1    
   119   60  126 1    
   120   61  127 1    
   121   61  128 1    
   122   61  129 1    
   123   62   63 2    
   124   62   64 am   BACKBONE|DICT|INTERRES
   125   64   65 1    
   126   64  130 1    
   127   65   66 1    
   128   65   69 1    
   129   65  131 1    
   130   66   67 am   BACKBONE|DICT|INTERRES
   131   66   68 2    
   132   67  132 1    
   133   67  133 1    
   134   69   70 1    
   135   69  134 1    
   136   69  135 1    
   137   70   71 1    
   138   71  136 1    
   139   71  137 1    
@<TRIPOS>SUBSTRUCTURE
     1 UNK         1 GROUP             0       ****    0 ROOT    
