@<TRIPOS>MOLECULE
3R136
137   139    1
SMALL
USER_CHARGES


@<TRIPOS>ATOM
      1 CA         32.8771   20.2033    0.5239 C.3       0 UNK        -0.1979 
      2 C          31.6555   20.1252    1.4367 C.2       0 UNK         0.4864 
      3 O          31.2707   19.0263    1.8329 O.2       0 UNK        -0.5359 
      4 N          31.0156   21.2454    1.8054 N.am      1 UNK        -0.4318 
      5 CA         31.3035   22.6237    1.3837 C.3       1 UNK         0.0824 
      6 C6         30.6236   23.6559    2.3186 C.3       12 UNK        -0.0944 
      7 S7         28.8075   23.4674    2.4294 S.3       12 UNK        -0.2672 
      8 C8         28.2419   25.1826    2.2225 C.3       12 UNK         0.0333 
      9 C9         28.2555   25.9450    3.5364 C.ar      12 UNK        -0.0807 
     10 C10        29.4254   26.5539    3.9949 C.ar      12 UNK        -0.0894 
     11 C11        29.4291   27.2709    5.1940 C.ar      12 UNK        -0.0804 
     12 C12        28.2421   27.4079    5.9213 C.ar      12 UNK        -0.0824 
     13 C13        27.0603   26.8138    5.4646 C.ar      12 UNK        -0.0762 
     14 C14        27.0822   26.0621    4.2851 C.ar      12 UNK        -0.0782 
     15 C15        25.7548   27.0004    6.2281 C.3       12 UNK         0.0230 
     16 S16        24.4166   27.6471    5.1662 S.3       12 UNK        -0.2608 
     17 C17        25.0175   29.3245    4.7619 C.3       12 UNK        -0.0989 
     18 CA         25.9347   29.3828    3.5110 C.3       5 UNK         0.0716 
     19 N          25.3604   28.6888    2.3447 N.am      5 UNK        -0.4135 
     20 C          26.0179   28.4179    1.2086 C.2       4 UNK         0.5031 
     21 O          27.1578   28.8223    0.9685 O.2       4 UNK        -0.5229 
     22 CA         25.2607   27.6122    0.1423 C.3       4 UNK         0.0329 
     23 CB         24.2300   28.5046   -0.5707 C.3       4 UNK        -0.2001 
     24 N          26.2202   27.1213   -0.8477 N.am      4 UNK        -0.4303 
     25 C          26.5933   25.8477   -1.0062 C.2       3 UNK         0.5044 
     26 O          26.0448   24.8946   -0.4469 O.2       3 UNK        -0.5152 
     27 CA         27.7952   25.5974   -1.9325 C.3       3 UNK         0.0319 
     28 CB         28.9215   26.6400   -1.7507 C.3       3 UNK        -0.2001 
     29 N          28.3161   24.2543   -1.6855 N.am      3 UNK        -0.4354 
     30 C          29.0598   23.5368   -2.5350 C.2       2 UNK         0.4964 
     31 O          29.3804   23.9291   -3.6590 O.2       2 UNK        -0.5047 
     32 CA         29.5222   22.1507   -2.0377 C.3       2 UNK         0.0288 
     33 CB         30.5899   21.5091   -2.9506 C.3       2 UNK        -0.2113 
     34 N          29.9819   22.1503   -0.6411 N.am      2 UNK        -0.4145 
     35 C          30.9700   22.8866   -0.1025 C.2       1 UNK         0.5006 
     36 O          31.6328   23.7186   -0.7225 O.2       1 UNK        -0.5103 
     37 C          26.3902   30.8344    3.2409 C.2       5 UNK         0.5055 
     38 O          27.1574   31.3783    4.0366 O.2       5 UNK        -0.5220 
     39 N          25.9430   31.4300    2.1250 N.am      6 UNK        -0.4450 
     40 CA         26.4359   32.7062    1.6023 C.3       6 UNK         0.0367 
     41 CB         25.5557   33.1456    0.4215 C.3       6 UNK        -0.1929 
     42 C          27.9169   32.6524    1.1787 C.2       6 UNK         0.5070 
     43 O          28.6066   33.6675    1.2762 O.2       6 UNK        -0.5237 
     44 N          28.4016   31.4736    0.7606 N.am      7 UNK        -0.4739 
     45 CA         29.8041   31.2081    0.4355 C.3       7 UNK         0.0276 
     46 CB         29.8712   30.1300   -0.6611 C.3       7 UNK        -0.1927 
     47 C          30.5796   30.8043    1.7025 C.2       7 UNK         0.5013 
     48 O          31.2121   29.7471    1.7334 O.2       7 UNK        -0.5193 
     49 N          30.5237   31.6629    2.7316 N.am      8 UNK        -0.4253 
     50 CA         31.1023   31.4529    4.0651 C.3       8 UNK         0.0242 
     51 CB         30.7895   32.6680    4.9512 C.3       8 UNK        -0.2000 
     52 C          32.6122   31.1517    4.0713 C.2       8 UNK         0.4948 
     53 O          33.0841   30.4513    4.9669 O.2       8 UNK        -0.5275 
     54 N          33.3295   31.6279    3.0428 N.am      9 UNK        -0.4246 
     55 CA         34.7379   31.3316    2.7695 C.3       9 UNK         0.0261 
     56 CB         35.1853   32.1139    1.5244 C.3       9 UNK        -0.1959 
     57 C          35.0506   29.8316    2.6008 C.2       9 UNK         0.5033 
     58 O          36.1850   29.4325    2.8675 O.2       9 UNK        -0.5390 
     59 N          34.0543   29.0153    2.2169 N.am      10 UNK        -0.4215 
     60 CA         34.1660   27.5538    2.1414 C.3       10 UNK         0.0240 
     61 CB         32.9183   26.9767    1.4531 C.3       10 UNK        -0.1982 
     62 C          34.3980   26.8764    3.5075 C.2       10 UNK         0.4970 
     63 O          34.9108   25.7571    3.5336 O.2       10 UNK        -0.4916 
     64 N          34.0471   27.5617    4.6046 N.am      11 UNK        -0.4279 
     65 CA         34.3599   27.1585    5.9833 C.3       11 UNK         0.1003 
     66 C          35.7514   27.6606    6.4727 C.2       11 UNK         0.5709 
     67 N          36.5358   28.3784    5.6751 N.am      11 UNK        -0.7358 
     68 O          36.1427   27.3740    7.6018 O.2       11 UNK        -0.4999 
     69 C69        33.2245   27.5608    6.9627 C.3       12 UNK        -0.0954 
     70 S70        31.6803   26.6510    6.6340 S.3       12 UNK        -0.2268 
     71 C71        30.7238   27.8823    5.7012 C.3       12 UNK         0.0203 
     72 H72        33.6023   20.9300    0.8875 H         1 UNK         0.0888 
     73 H73        32.5872   20.4696   -0.4919 H         1 UNK         0.0888 
     74 H74        33.3797   19.2372    0.4805 H         1 UNK         0.0888 
     75 H75        30.2201   21.1585    2.4228 H         1 UNK         0.3017 
     76 H76        32.3789   22.7797    1.4871 H         1 UNK         0.0873 
     77 H77        30.8773   24.6674    1.9988 H         1 UNK         0.0745 
     78 H78        31.0290   23.5607    3.3273 H         1 UNK         0.0745 
     79 H79        28.8401   25.6997    1.4715 H         1 UNK         0.0705 
     80 H80        27.2240   25.1586    1.8357 H         1 UNK         0.0705 
     81 H81        30.3393   26.4591    3.4281 H         1 UNK         0.1334 
     82 H82        28.2408   27.9764    6.8413 H         1 UNK         0.1417 
     83 H83        26.1718   25.5969    3.9321 H         1 UNK         0.1562 
     84 H84        25.8889   27.6681    7.0806 H         1 UNK         0.0748 
     85 H85        25.4463   26.0370    6.6360 H         1 UNK         0.0748 
     86 H86        25.5357   29.7279    5.6345 H         1 UNK         0.0940 
     87 H87        24.1415   29.9594    4.6154 H         1 UNK         0.0940 
     88 H88        26.8571   28.8525    3.7474 H         1 UNK         0.0703 
     89 H89        24.4240   28.3308    2.4681 H         1 UNK         0.3081 
     90 H90        24.7456   26.7828    0.6318 H         1 UNK         0.0719 
     91 H91        24.6977   29.3741   -1.0350 H         1 UNK         0.0809 
     92 H92        23.7063   27.9527   -1.3515 H         1 UNK         0.0809 
     93 H93        23.4736   28.8710    0.1244 H         1 UNK         0.0809 
     94 H94        26.7830   27.8370   -1.2855 H         1 UNK         0.2990 
     95 H95        27.4245   25.6463   -2.9584 H         1 UNK         0.0690 
     96 H96        29.7953   26.3957   -2.3548 H         1 UNK         0.0788 
     97 H97        29.2489   26.7028   -0.7124 H         1 UNK         0.0788 
     98 H98        28.6001   27.6346   -2.0598 H         1 UNK         0.0788 
     99 H99        28.0219   23.8432   -0.8085 H         1 UNK         0.2993 
    100 H100       28.6376   21.5127   -2.0714 H         1 UNK         0.0949 
    101 H101       31.4972   22.1125   -2.9974 H         1 UNK         0.0767 
    102 H102       30.8660   20.5147   -2.5997 H         1 UNK         0.0767 
    103 H103       30.2192   21.3987   -3.9706 H         1 UNK         0.0767 
    104 H104       29.4954   21.5153   -0.0229 H         1 UNK         0.3013 
    105 H105       25.3047   30.9148    1.5376 H         1 UNK         0.3121 
    106 H106       26.3467   33.4517    2.3955 H         1 UNK         0.0774 
    107 H107       24.5144   33.2612    0.7227 H         1 UNK         0.0815 
    108 H108       25.5923   32.4282   -0.3995 H         1 UNK         0.0815 
    109 H109       25.8857   34.1079    0.0275 H         1 UNK         0.0815 
    110 H110       27.7997   30.6544    0.7883 H         1 UNK         0.2987 
    111 H111       30.2685   32.1144    0.0406 H         1 UNK         0.0949 
    112 H112       29.4785   29.1774   -0.3059 H         1 UNK         0.0806 
    113 H113       29.3026   30.4216   -1.5440 H         1 UNK         0.0806 
    114 H114       30.9005   29.9580   -0.9782 H         1 UNK         0.0806 
    115 H115       29.9729   32.5029    2.6021 H         1 UNK         0.3010 
    116 H116       30.5987   30.5844    4.4923 H         1 UNK         0.0829 
    117 H117       29.7139   32.8217    5.0452 H         1 UNK         0.0813 
    118 H118       31.1841   32.5286    5.9588 H         1 UNK         0.0813 
    119 H119       31.2276   33.5834    4.5516 H         1 UNK         0.0813 
    120 H120       32.8468   32.1921    2.3590 H         1 UNK         0.3038 
    121 H121       35.3158   31.6862    3.6254 H         1 UNK         0.0769 
    122 H122       34.6193   31.8218    0.6388 H         1 UNK         0.0811 
    123 H123       36.2401   31.9357    1.3100 H         1 UNK         0.0811 
    124 H124       35.0633   33.1882    1.6639 H         1 UNK         0.0811 
    125 H125       33.1332   29.4062    2.0315 H         1 UNK         0.3204 
    126 H126       35.0322   27.3224    1.5180 H         1 UNK         0.0748 
    127 H127       32.7837   27.3973    0.4563 H         1 UNK         0.0771 
    128 H128       32.9975   25.8947    1.3392 H         1 UNK         0.0771 
    129 H129       32.0138   27.1829    2.0243 H         1 UNK         0.0771 
    130 H130       33.6625   28.4944    4.5068 H         1 UNK         0.2980 
    131 H131       34.4327   26.0699    6.0141 H         1 UNK         0.0545 
    132 H132       37.4328   28.6800    6.0202 H         1 UNK         0.3459 
    133 H133       36.2587   28.6175    4.7302 H         1 UNK         0.3459 
    134 H134       33.5050   27.3326    7.9925 H         1 UNK         0.0616 
    135 H135       33.0412   28.6358    6.9323 H         1 UNK         0.0616 
    136 H136       31.3145   28.2413    4.8577 H         1 UNK         0.0634 
    137 H137       30.5217   28.7468    6.3354 H         1 UNK         0.0634 
@<TRIPOS>BOND
     1    1    2 1    
     2    1   72 1    
     3    1   73 1    
     4    1   74 1    
     5    2    3 2    
     6    2    4 am   BACKBONE|DICT|INTERRES
     7    4    5 1    
     8    4   75 1    
     9    5    6 1    
    10    5   35 1    
    11    5   76 1    
    12    6    7 1    
    13    6   77 1    
    14    6   78 1    
    15    7    8 1    
    16    8    9 1    
    17    8   79 1    
    18    8   80 1    
    19    9   10 ar   
    20    9   14 ar   
    21   10   11 ar   
    22   10   81 1    
    23   11   12 ar   
    24   11   71 1    
    25   12   13 ar   
    26   12   82 1    
    27   13   14 ar   
    28   13   15 1    
    29   14   83 1    
    30   15   16 1    
    31   15   84 1    
    32   15   85 1    
    33   16   17 1    
    34   17   18 1    
    35   17   86 1    
    36   17   87 1    
    37   18   19 1    
    38   18   37 1    
    39   18   88 1    
    40   19   20 am   BACKBONE|DICT|INTERRES
    41   19   89 1    
    42   20   21 2    
    43   20   22 1    
    44   22   23 1    
    45   22   24 1    
    46   22   90 1    
    47   23   91 1    
    48   23   92 1    
    49   23   93 1    
    50   24   25 am   BACKBONE|DICT|INTERRES
    51   24   94 1    
    52   25   26 2    
    53   25   27 1    
    54   27   28 1    
    55   27   29 1    
    56   27   95 1    
    57   28   96 1    
    58   28   97 1    
    59   28   98 1    
    60   29   30 am   BACKBONE|DICT|INTERRES
    61   29   99 1    
    62   30   31 2    
    63   30   32 1    
    64   32   33 1    
    65   32   34 1    
    66   32  100 1    
    67   33  101 1    
    68   33  102 1    
    69   33  103 1    
    70   34   35 am   BACKBONE|DICT|INTERRES
    71   34  104 1    
    72   35   36 2    
    73   37   38 2    
    74   37   39 am   BACKBONE|DICT|INTERRES
    75   39   40 1    
    76   39  105 1    
    77   40   41 1    
    78   40   42 1    
    79   40  106 1    
    80   41  107 1    
    81   41  108 1    
    82   41  109 1    
    83   42   43 2    
    84   42   44 am   BACKBONE|DICT|INTERRES
    85   44   45 1    
    86   44  110 1    
    87   45   46 1    
    88   45   47 1    
    89   45  111 1    
    90   46  112 1    
    91   46  113 1    
    92   46  114 1    
    93   47   48 2    
    94   47   49 am   BACKBONE|DICT|INTERRES
    95   49   50 1    
    96   49  115 1    
    97   50   51 1    
    98   50   52 1    
    99   50  116 1    
   100   51  117 1    
   101   51  118 1    
   102   51  119 1    
   103   52   53 2    
   104   52   54 am   BACKBONE|DICT|INTERRES
   105   54   55 1    
   106   54  120 1    
   107   55   56 1    
   108   55   57 1    
   109   55  121 1    
   110   56  122 1    
   111   56  123 1    
   112   56  124 1    
   113   57   58 2    
   114   57   59 am   BACKBONE|DICT|INTERRES
   115   59   60 1    
   116   59  125 1    
   117   60   61 1    
   118   60   62 1    
   119   60  126 1    
   120   61  127 1    
   121   61  128 1    
   122   61  129 1    
   123   62   63 2    
   124   62   64 am   BACKBONE|DICT|INTERRES
   125   64   65 1    
   126   64  130 1    
   127   65   66 1    
   128   65   69 1    
   129   65  131 1    
   130   66   67 am   BACKBONE|DICT|INTERRES
   131   66   68 2    
   132   67  132 1    
   133   67  133 1    
   134   69   70 1    
   135   69  134 1    
   136   69  135 1    
   137   70   71 1    
   138   71  136 1    
   139   71  137 1    
@<TRIPOS>SUBSTRUCTURE
     1 UNK         1 GROUP             0       ****    0 ROOT    
