@<TRIPOS>MOLECULE
3R136
137   139    1
SMALL
USER_CHARGES


@<TRIPOS>ATOM
      1 CA         34.2275   24.2956    0.4054 C.3       0 UNK        -0.1979 
      2 C          32.7110   24.1819    0.4438 C.2       0 UNK         0.4864 
      3 O          32.0256   25.2030    0.4967 O.2       0 UNK        -0.5359 
      4 N          32.1839   22.9494    0.3990 N.am      1 UNK        -0.4318 
      5 CA         30.7525   22.6213    0.4986 C.3       1 UNK         0.0824 
      6 C6         30.5036   21.0915    0.5812 C.3       12 UNK        -0.0944 
      7 S7         31.5275   20.2195    1.8140 S.3       12 UNK        -0.2672 
      8 C8         30.4244   20.1739    3.2613 C.3       12 UNK         0.0333 
      9 C9         30.4416   21.4967    4.0107 C.ar      12 UNK        -0.0807 
     10 C10        31.5618   21.8450    4.7698 C.ar      12 UNK        -0.0894 
     11 C11        31.6070   23.0609    5.4554 C.ar      12 UNK        -0.0804 
     12 C12        30.5132   23.9295    5.3868 C.ar      12 UNK        -0.0824 
     13 C13        29.3777   23.5836    4.6462 C.ar      12 UNK        -0.0762 
     14 C14        29.3474   22.3661    3.9578 C.ar      12 UNK        -0.0782 
     15 C15        28.1674   24.5048    4.6268 C.3       12 UNK         0.0230 
     16 S16        27.9962   25.3913    3.0461 S.3       12 UNK        -0.2608 
     17 C17        26.5535   26.4436    3.4278 C.3       12 UNK        -0.0989 
     18 CA         26.8813   27.9471    3.2605 C.3       5 UNK         0.0716 
     19 N          26.9339   28.3357    1.8471 N.am      5 UNK        -0.4135 
     20 C          27.1172   29.5746    1.3737 C.2       4 UNK         0.5031 
     21 O          27.3357   30.5540    2.0895 O.2       4 UNK        -0.5229 
     22 CA         27.0729   29.7381   -0.1566 C.3       4 UNK         0.0329 
     23 CB         26.8612   31.2017   -0.5847 C.3       4 UNK        -0.2001 
     24 N          28.2984   29.2407   -0.7799 N.am      4 UNK        -0.4303 
     25 C          28.6088   27.9487   -0.9402 C.2       3 UNK         0.5044 
     26 O          27.8731   27.0248   -0.5828 O.2       3 UNK        -0.5152 
     27 CA         29.9763   27.6646   -1.5886 C.3       3 UNK         0.0319 
     28 CB         31.1206   28.1495   -0.6884 C.3       3 UNK        -0.2001 
     29 N          30.1788   26.2420   -1.8645 N.am      3 UNK        -0.4354 
     30 C          29.5983   25.5703   -2.8694 C.2       2 UNK         0.4964 
     31 O          28.8755   26.1022   -3.7141 O.2       2 UNK        -0.5047 
     32 CA         29.8832   24.0601   -2.9851 C.3       2 UNK         0.0288 
     33 CB         30.7722   23.7711   -4.2070 C.3       2 UNK        -0.2113 
     34 N          30.5177   23.4833   -1.7977 N.am      2 UNK        -0.4145 
     35 C          29.8925   23.2087   -0.6433 C.2       1 UNK         0.5006 
     36 O          28.6855   23.3763   -0.4664 O.2       1 UNK        -0.5103 
     37 C          25.8935   28.8211    4.0634 C.2       5 UNK         0.5055 
     38 O          24.7414   28.9771    3.6527 O.2       5 UNK        -0.5220 
     39 N          26.3886   29.3718    5.1817 N.am      6 UNK        -0.4450 
     40 CA         25.7199   30.3010    6.1020 C.3       6 UNK         0.0367 
     41 CB         24.4449   29.6765    6.7104 C.3       6 UNK        -0.1929 
     42 C          25.4719   31.7134    5.5276 C.2       6 UNK         0.5070 
     43 O          24.7093   32.4712    6.1299 O.2       6 UNK        -0.5237 
     44 N          26.1285   32.0696    4.4139 N.am      7 UNK        -0.4739 
     45 CA         26.0648   33.4018    3.8048 C.3       7 UNK         0.0276 
     46 CB         25.1106   33.3820    2.5988 C.3       7 UNK        -0.1927 
     47 C          27.4591   33.9075    3.4087 C.2       7 UNK         0.5013 
     48 O          27.8253   35.0211    3.7865 O.2       7 UNK        -0.5193 
     49 N          28.2158   33.0868    2.6717 N.am      8 UNK        -0.4253 
     50 CA         29.5597   33.3766    2.1758 C.3       8 UNK         0.0242 
     51 CB         29.4952   34.3302    0.9640 C.3       8 UNK        -0.2000 
     52 C          30.2484   32.0437    1.8547 C.2       8 UNK         0.4948 
     53 O          30.4971   31.7354    0.6868 O.2       8 UNK        -0.5275 
     54 N          30.4866   31.2438    2.9016 N.am      9 UNK        -0.4246 
     55 CA         31.1162   29.9281    2.8033 C.3       9 UNK         0.0261 
     56 CB         30.8736   29.1498    4.1077 C.3       9 UNK        -0.1959 
     57 C          32.6248   30.0503    2.5345 C.2       9 UNK         0.5033 
     58 O          33.2932   30.8594    3.1822 O.2       9 UNK        -0.5390 
     59 N          33.1389   29.2099    1.6277 N.am      10 UNK        -0.4215 
     60 CA         34.5748   29.0350    1.3856 C.3       10 UNK         0.0240 
     61 CB         34.7877   28.4526   -0.0214 C.3       10 UNK        -0.1982 
     62 C          35.2309   28.1289    2.4426 C.2       10 UNK         0.4970 
     63 O          36.4321   28.2517    2.6830 O.2       10 UNK        -0.4916 
     64 N          34.4322   27.2345    3.0391 N.am      11 UNK        -0.4279 
     65 CA         34.8116   26.3371    4.1329 C.3       11 UNK         0.1003 
     66 C          35.1741   27.1127    5.4304 C.2       11 UNK         0.5709 
     67 N          36.2472   26.7309    6.1094 N.am      11 UNK        -0.7358 
     68 O          34.4695   28.0335    5.8396 O.2       11 UNK        -0.4999 
     69 C69        33.6800   25.3067    4.3730 C.3       12 UNK        -0.0954 
     70 S70        34.2661   23.8019    5.2141 S.3       12 UNK        -0.2268 
     71 C71        32.8373   23.4242    6.2754 C.3       12 UNK         0.0203 
     72 H72        34.5874   24.8343    1.2809 H         1 UNK         0.0888 
     73 H73        34.7089   23.3180    0.3895 H         1 UNK         0.0888 
     74 H74        34.5395   24.8432   -0.4833 H         1 UNK         0.0888 
     75 H75        32.8002   22.1490    0.3728 H         1 UNK         0.3017 
     76 H76        30.3932   23.0784    1.4226 H         1 UNK         0.0873 
     77 H77        29.4508   20.8887    0.7879 H         1 UNK         0.0745 
     78 H78        30.7102   20.6246   -0.3842 H         1 UNK         0.0745 
     79 H79        30.7603   19.3812    3.9314 H         1 UNK         0.0705 
     80 H80        29.4126   19.9033    2.9558 H         1 UNK         0.0705 
     81 H81        32.4088   21.1736    4.8148 H         1 UNK         0.1334 
     82 H82        30.5406   24.8695    5.9209 H         1 UNK         0.1417 
     83 H83        28.4717   22.0997    3.3813 H         1 UNK         0.1562 
     84 H84        28.2328   25.2306    5.4391 H         1 UNK         0.0748 
     85 H85        27.2651   23.9191    4.8099 H         1 UNK         0.0748 
     86 H86        26.2224   26.2286    4.4461 H         1 UNK         0.0940 
     87 H87        25.7204   26.1545    2.7841 H         1 UNK         0.0940 
     88 H88        27.8794   28.1244    3.6615 H         1 UNK         0.0703 
     89 H89        26.8653   27.5835    1.1708 H         1 UNK         0.3081 
     90 H90        26.2263   29.1578   -0.5301 H         1 UNK         0.0719 
     91 H91        27.6711   31.8461   -0.2419 H         1 UNK         0.0809 
     92 H92        26.7981   31.2927   -1.6691 H         1 UNK         0.0809 
     93 H93        25.9307   31.5955   -0.1762 H         1 UNK         0.0809 
     94 H94        28.9762   29.9412   -1.0469 H         1 UNK         0.2990 
     95 H95        30.0221   28.2104   -2.5336 H         1 UNK         0.0690 
     96 H96        32.0886   27.9147   -1.1308 H         1 UNK         0.0788 
     97 H97        31.0704   27.6761    0.2924 H         1 UNK         0.0788 
     98 H98        31.0842   29.2306   -0.5466 H         1 UNK         0.0788 
     99 H99        30.7238   25.7281   -1.1819 H         1 UNK         0.2993 
    100 H100       28.9216   23.5643   -3.1360 H         1 UNK         0.0949 
    101 H101       31.7516   24.2423   -4.1141 H         1 UNK         0.0767 
    102 H102       30.9246   22.7001   -4.3432 H         1 UNK         0.0767 
    103 H103       30.3145   24.1491   -5.1224 H         1 UNK         0.0767 
    104 H104       31.5102   23.3067   -1.8525 H         1 UNK         0.3013 
    105 H105       27.3509   29.1706    5.4168 H         1 UNK         0.3121 
    106 H106       26.4229   30.4483    6.9233 H         1 UNK         0.0774 
    107 H107       24.0613   30.2886    7.5276 H         1 UNK         0.0815 
    108 H108       23.6451   29.5863    5.9751 H         1 UNK         0.0815 
    109 H109       24.6421   28.6850    7.1175 H         1 UNK         0.0815 
    110 H110       26.7113   31.3861    3.9446 H         1 UNK         0.2987 
    111 H111       25.6741   34.1229    4.5265 H         1 UNK         0.0949 
    112 H112       25.0883   34.3511    2.0985 H         1 UNK         0.0806 
    113 H113       25.4087   32.6372    1.8620 H         1 UNK         0.0806 
    114 H114       24.0911   33.1524    2.9087 H         1 UNK         0.0806 
    115 H115       27.8501   32.1673    2.4147 H         1 UNK         0.3010 
    116 H116       30.1380   33.8598    2.9664 H         1 UNK         0.0829 
    117 H117       29.0726   35.2967    1.2383 H         1 UNK         0.0813 
    118 H118       30.4918   34.5170    0.5621 H         1 UNK         0.0813 
    119 H119       28.8891   33.9179    0.1571 H         1 UNK         0.0813 
    120 H120       30.2735   31.5791    3.8296 H         1 UNK         0.3038 
    121 H121       30.6352   29.3864    1.9867 H         1 UNK         0.0769 
    122 H122       31.4037   29.5978    4.9497 H         1 UNK         0.0811 
    123 H123       31.2195   28.1191    4.0189 H         1 UNK         0.0811 
    124 H124       29.8164   29.1170    4.3637 H         1 UNK         0.0811 
    125 H125       32.5185   28.6016    1.1138 H         1 UNK         0.3204 
    126 H126       35.0648   30.0102    1.4303 H         1 UNK         0.0748 
    127 H127       35.8508   28.3396   -0.2389 H         1 UNK         0.0771 
    128 H128       34.3285   27.4689   -0.1278 H         1 UNK         0.0771 
    129 H129       34.3705   29.1055   -0.7884 H         1 UNK         0.0771 
    130 H130       33.4585   27.2201    2.7824 H         1 UNK         0.2980 
    131 H131       35.6994   25.8003    3.7919 H         1 UNK         0.0545 
    132 H132       36.4879   27.2157    6.9595 H         1 UNK         0.3459 
    133 H133       36.8159   25.9613    5.7923 H         1 UNK         0.3459 
    134 H134       33.2505   24.9791    3.4250 H         1 UNK         0.0616 
    135 H135       32.8571   25.7592    4.9296 H         1 UNK         0.0616 
    136 H136       33.0944   22.5889    6.9281 H         1 UNK         0.0634 
    137 H137       32.6372   24.2745    6.9294 H         1 UNK         0.0634 
@<TRIPOS>BOND
     1    1    2 1    
     2    1   72 1    
     3    1   73 1    
     4    1   74 1    
     5    2    3 2    
     6    2    4 am   BACKBONE|DICT|INTERRES
     7    4    5 1    
     8    4   75 1    
     9    5    6 1    
    10    5   35 1    
    11    5   76 1    
    12    6    7 1    
    13    6   77 1    
    14    6   78 1    
    15    7    8 1    
    16    8    9 1    
    17    8   79 1    
    18    8   80 1    
    19    9   10 ar   
    20    9   14 ar   
    21   10   11 ar   
    22   10   81 1    
    23   11   12 ar   
    24   11   71 1    
    25   12   13 ar   
    26   12   82 1    
    27   13   14 ar   
    28   13   15 1    
    29   14   83 1    
    30   15   16 1    
    31   15   84 1    
    32   15   85 1    
    33   16   17 1    
    34   17   18 1    
    35   17   86 1    
    36   17   87 1    
    37   18   19 1    
    38   18   37 1    
    39   18   88 1    
    40   19   20 am   BACKBONE|DICT|INTERRES
    41   19   89 1    
    42   20   21 2    
    43   20   22 1    
    44   22   23 1    
    45   22   24 1    
    46   22   90 1    
    47   23   91 1    
    48   23   92 1    
    49   23   93 1    
    50   24   25 am   BACKBONE|DICT|INTERRES
    51   24   94 1    
    52   25   26 2    
    53   25   27 1    
    54   27   28 1    
    55   27   29 1    
    56   27   95 1    
    57   28   96 1    
    58   28   97 1    
    59   28   98 1    
    60   29   30 am   BACKBONE|DICT|INTERRES
    61   29   99 1    
    62   30   31 2    
    63   30   32 1    
    64   32   33 1    
    65   32   34 1    
    66   32  100 1    
    67   33  101 1    
    68   33  102 1    
    69   33  103 1    
    70   34   35 am   BACKBONE|DICT|INTERRES
    71   34  104 1    
    72   35   36 2    
    73   37   38 2    
    74   37   39 am   BACKBONE|DICT|INTERRES
    75   39   40 1    
    76   39  105 1    
    77   40   41 1    
    78   40   42 1    
    79   40  106 1    
    80   41  107 1    
    81   41  108 1    
    82   41  109 1    
    83   42   43 2    
    84   42   44 am   BACKBONE|DICT|INTERRES
    85   44   45 1    
    86   44  110 1    
    87   45   46 1    
    88   45   47 1    
    89   45  111 1    
    90   46  112 1    
    91   46  113 1    
    92   46  114 1    
    93   47   48 2    
    94   47   49 am   BACKBONE|DICT|INTERRES
    95   49   50 1    
    96   49  115 1    
    97   50   51 1    
    98   50   52 1    
    99   50  116 1    
   100   51  117 1    
   101   51  118 1    
   102   51  119 1    
   103   52   53 2    
   104   52   54 am   BACKBONE|DICT|INTERRES
   105   54   55 1    
   106   54  120 1    
   107   55   56 1    
   108   55   57 1    
   109   55  121 1    
   110   56  122 1    
   111   56  123 1    
   112   56  124 1    
   113   57   58 2    
   114   57   59 am   BACKBONE|DICT|INTERRES
   115   59   60 1    
   116   59  125 1    
   117   60   61 1    
   118   60   62 1    
   119   60  126 1    
   120   61  127 1    
   121   61  128 1    
   122   61  129 1    
   123   62   63 2    
   124   62   64 am   BACKBONE|DICT|INTERRES
   125   64   65 1    
   126   64  130 1    
   127   65   66 1    
   128   65   69 1    
   129   65  131 1    
   130   66   67 am   BACKBONE|DICT|INTERRES
   131   66   68 2    
   132   67  132 1    
   133   67  133 1    
   134   69   70 1    
   135   69  134 1    
   136   69  135 1    
   137   70   71 1    
   138   71  136 1    
   139   71  137 1    
@<TRIPOS>SUBSTRUCTURE
     1 UNK         1 GROUP             0       ****    0 ROOT    
