@<TRIPOS>MOLECULE
3R136
137   139    1
SMALL
USER_CHARGES


@<TRIPOS>ATOM
      1 CA         29.8966   23.7047   -0.2115 C.3       0 UNK        -0.1979 
      2 C          28.6786   24.4173    0.3542 C.2       0 UNK         0.4864 
      3 O          28.0030   25.1321   -0.3880 O.2       0 UNK        -0.5359 
      4 N          28.4037   24.2145    1.6509 N.am      1 UNK        -0.4318 
      5 CA         27.3297   24.8087    2.4595 C.3       1 UNK         0.0824 
      6 C6         27.3098   24.1899    3.8849 C.3       12 UNK        -0.0944 
      7 S7         28.5478   24.8990    5.0233 S.3       12 UNK        -0.2672 
      8 C8         30.1049   24.0730    4.5491 C.3       12 UNK         0.0333 
      9 C9         31.1339   25.0117    3.9155 C.ar      12 UNK        -0.0807 
     10 C10        32.4965   24.7719    4.1218 C.ar      12 UNK        -0.0894 
     11 C11        33.4661   25.6070    3.5559 C.ar      12 UNK        -0.0804 
     12 C12        33.0668   26.6911    2.7677 C.ar      12 UNK        -0.0824 
     13 C13        31.7106   26.9330    2.5371 C.ar      12 UNK        -0.0762 
     14 C14        30.7550   26.0966    3.1153 C.ar      12 UNK        -0.0782 
     15 C15        31.2632   28.0898    1.6599 C.3       12 UNK         0.0230 
     16 S16        30.9667   27.5399   -0.0438 S.3       12 UNK        -0.2608 
     17 C17        30.1842   29.0267   -0.7678 C.3       12 UNK        -0.0989 
     18 CA         28.6745   28.8639   -1.1062 C.3       5 UNK         0.0716 
     19 N          28.3972   27.6490   -1.8707 N.am      5 UNK        -0.4135 
     20 C          28.6036   27.5208   -3.1877 C.2       4 UNK         0.5031 
     21 O          28.9837   28.4472   -3.9061 O.2       4 UNK        -0.5229 
     22 CA         28.3616   26.1480   -3.8350 C.3       4 UNK         0.0329 
     23 CB         29.6877   25.3795   -3.9648 C.3       4 UNK        -0.2001 
     24 N          27.4111   25.3338   -3.0792 N.am      4 UNK        -0.4303 
     25 C          26.3442   24.7070   -3.5909 C.2       3 UNK         0.5044 
     26 O          26.0238   24.7451   -4.7796 O.2       3 UNK        -0.5152 
     27 CA         25.4802   23.9052   -2.6079 C.3       3 UNK         0.0319 
     28 CB         26.1158   22.5333   -2.3268 C.3       3 UNK        -0.2001 
     29 N          25.3216   24.6304   -1.3475 N.am      3 UNK        -0.4354 
     30 C          24.1798   25.1621   -0.8933 C.2       2 UNK         0.4964 
     31 O          23.1023   25.0659   -1.4834 O.2       2 UNK        -0.5047 
     32 CA         24.2447   25.9626    0.4248 C.3       2 UNK         0.0288 
     33 CB         23.0133   25.7240    1.3248 C.3       2 UNK        -0.2113 
     34 N          25.4934   25.7885    1.1775 N.am      2 UNK        -0.4145 
     35 C          25.9491   24.6812    1.7834 C.2       1 UNK         0.5006 
     36 O          25.3549   23.6013    1.8088 O.2       1 UNK        -0.5103 
     37 C          27.7677   28.9128    0.1348 C.2       5 UNK         0.5055 
     38 O          27.2657   27.8775    0.5814 O.2       5 UNK        -0.5220 
     39 N          27.5594   30.1234    0.6688 N.am      6 UNK        -0.4450 
     40 CA         26.7980   30.3611    1.8964 C.3       6 UNK         0.0367 
     41 CB         26.5453   31.8684    2.0581 C.3       6 UNK        -0.1929 
     42 C          27.5532   29.8098    3.1139 C.2       6 UNK         0.5070 
     43 O          28.7559   30.0507    3.2285 O.2       6 UNK        -0.5237 
     44 N          26.8392   29.0870    3.9845 N.am      7 UNK        -0.4739 
     45 CA         27.3698   28.4307    5.1811 C.3       7 UNK         0.0276 
     46 CB         26.2460   27.5980    5.8231 C.3       7 UNK        -0.1927 
     47 C          27.9468   29.4453    6.1940 C.2       7 UNK         0.5013 
     48 O          27.1605   30.1990    6.7680 O.2       7 UNK        -0.5193 
     49 N          29.2622   29.5009    6.4460 N.am      8 UNK        -0.4253 
     50 CA         30.3658   28.8215    5.7676 C.3       8 UNK         0.0242 
     51 CB         30.8753   27.6548    6.6331 C.3       8 UNK        -0.2000 
     52 C          31.4394   29.8805    5.5013 C.2       8 UNK         0.4948 
     53 O          32.3370   30.0692    6.3241 O.2       8 UNK        -0.5275 
     54 N          31.2676   30.6061    4.3891 N.am      9 UNK        -0.4246 
     55 CA         32.1541   31.6688    3.9097 C.3       9 UNK         0.0261 
     56 CB         31.5604   32.2653    2.6228 C.3       9 UNK        -0.1959 
     57 C          33.5887   31.1703    3.6598 C.2       9 UNK         0.5033 
     58 O          33.7646   30.0844    3.1036 O.2       9 UNK        -0.5390 
     59 N          34.5790   31.9837    4.0570 N.am      10 UNK        -0.4215 
     60 CA         36.0148   31.6757    4.0580 C.3       10 UNK         0.0240 
     61 CB         36.5660   31.5622    2.6168 C.3       10 UNK        -0.1982 
     62 C          36.2995   30.4547    4.9548 C.2       10 UNK         0.4970 
     63 O          36.1152   30.5631    6.1682 O.2       10 UNK        -0.4916 
     64 N          36.7167   29.3309    4.3557 N.am      11 UNK        -0.4279 
     65 CA         36.9072   28.0288    5.0172 C.3       11 UNK         0.1003 
     66 C          38.0595   27.9911    6.0714 C.2       11 UNK         0.5709 
     67 N          39.0331   28.8923    6.0048 N.am      11 UNK        -0.7358 
     68 O          38.0969   27.1273    6.9444 O.2       11 UNK        -0.4999 
     69 C69        35.5517   27.4453    5.5225 C.3       12 UNK        -0.0954 
     70 S70        35.4894   25.6231    5.4739 S.3       12 UNK        -0.2268 
     71 C71        34.9445   25.3097    3.7648 C.3       12 UNK         0.0203 
     72 H72        30.6410   24.4364   -0.5243 H         1 UNK         0.0888 
     73 H73        30.3602   23.0426    0.5195 H         1 UNK         0.0888 
     74 H74        29.6156   23.1103   -1.0803 H         1 UNK         0.0888 
     75 H75        29.0033   23.5851    2.1613 H         1 UNK         0.3017 
     76 H76        27.5392   25.8759    2.5521 H         1 UNK         0.0873 
     77 H77        27.4195   23.1043    3.8476 H         1 UNK         0.0745 
     78 H78        26.3448   24.3655    4.3653 H         1 UNK         0.0745 
     79 H79        29.9081   23.2411    3.8735 H         1 UNK         0.0705 
     80 H80        30.5248   23.6326    5.4548 H         1 UNK         0.0705 
     81 H81        32.8096   23.9316    4.7266 H         1 UNK         0.1334 
     82 H82        33.8081   27.3425    2.3245 H         1 UNK         0.1417 
     83 H83        29.7130   26.3021    2.9289 H         1 UNK         0.1562 
     84 H84        30.3463   28.5166    2.0604 H         1 UNK         0.0748 
     85 H85        32.0062   28.8867    1.6578 H         1 UNK         0.0748 
     86 H86        30.7273   29.2545   -1.6863 H         1 UNK         0.0940 
     87 H87        30.3505   29.8898   -0.1204 H         1 UNK         0.0940 
     88 H88        28.3757   29.7158   -1.7213 H         1 UNK         0.0703 
     89 H89        28.1032   26.8597   -1.3018 H         1 UNK         0.3081 
     90 H90        27.9756   26.3390   -4.8385 H         1 UNK         0.0719 
     91 H91        30.1305   25.1749   -2.9892 H         1 UNK         0.0809 
     92 H92        29.5455   24.4273   -4.4758 H         1 UNK         0.0809 
     93 H93        30.4165   25.9515   -4.5408 H         1 UNK         0.0809 
     94 H94        27.6071   25.2262   -2.0857 H         1 UNK         0.2990 
     95 H95        24.5094   23.7383   -3.0794 H         1 UNK         0.0690 
     96 H96        25.4876   21.9372   -1.6646 H         1 UNK         0.0788 
     97 H97        27.0969   22.6266   -1.8599 H         1 UNK         0.0788 
     98 H98        26.2448   21.9663   -3.2498 H         1 UNK         0.0788 
     99 H99        26.1673   24.7873   -0.8068 H         1 UNK         0.2993 
    100 H100       24.2313   27.0119    0.1261 H         1 UNK         0.0949 
    101 H101       23.0720   26.3114    2.2412 H         1 UNK         0.0767 
    102 H102       22.0934   26.0136    0.8153 H         1 UNK         0.0767 
    103 H103       22.9111   24.6748    1.6035 H         1 UNK         0.0767 
    104 H104       26.1348   26.5810    1.1137 H         1 UNK         0.3013 
    105 H105       28.0210   30.9253    0.2653 H         1 UNK         0.3121 
    106 H106       25.8351   29.8530    1.8067 H         1 UNK         0.0774 
    107 H107       25.9607   32.0707    2.9565 H         1 UNK         0.0815 
    108 H108       27.4782   32.4274    2.1453 H         1 UNK         0.0815 
    109 H109       25.9883   32.2719    1.2123 H         1 UNK         0.0815 
    110 H110       25.8484   28.9801    3.8232 H         1 UNK         0.2987 
    111 H111       28.1290   27.7235    4.8604 H         1 UNK         0.0949 
    112 H112       25.4047   28.2180    6.1355 H         1 UNK         0.0806 
    113 H113       25.8681   26.8423    5.1343 H         1 UNK         0.0806 
    114 H114       26.6108   27.0726    6.7067 H         1 UNK         0.0806 
    115 H115       29.5684   30.1920    7.1167 H         1 UNK         0.3010 
    116 H116       30.0831   28.4265    4.7937 H         1 UNK         0.0829 
    117 H117       30.1054   26.8953    6.7664 H         1 UNK         0.0813 
    118 H118       31.7312   27.1696    6.1611 H         1 UNK         0.0813 
    119 H119       31.1910   27.9881    7.6223 H         1 UNK         0.0813 
    120 H120       30.4411   30.4132    3.8245 H         1 UNK         0.3038 
    121 H121       32.1765   32.4444    4.6777 H         1 UNK         0.0769 
    122 H122       31.4924   31.5191    1.8299 H         1 UNK         0.0811 
    123 H123       32.1763   33.0843    2.2492 H         1 UNK         0.0811 
    124 H124       30.5594   32.6624    2.7936 H         1 UNK         0.0811 
    125 H125       34.3254   32.8473    4.5168 H         1 UNK         0.3204 
    126 H126       36.5138   32.5226    4.5318 H         1 UNK         0.0748 
    127 H127       37.6428   31.3875    2.6201 H         1 UNK         0.0771 
    128 H128       36.1000   30.7557    2.0499 H         1 UNK         0.0771 
    129 H129       36.3970   32.4865    2.0640 H         1 UNK         0.0771 
    130 H130       36.8392   29.3402    3.3540 H         1 UNK         0.2980 
    131 H131       37.2611   27.3810    4.2150 H         1 UNK         0.0545 
    132 H132       39.0249   29.6031    5.2912 H         1 UNK         0.3459 
    133 H133       39.7802   28.8619    6.6806 H         1 UNK         0.3459 
    134 H134       34.7231   27.8206    4.9195 H         1 UNK         0.0616 
    135 H135       35.3407   27.7796    6.5397 H         1 UNK         0.0616 
    136 H136       35.5607   25.8893    3.0759 H         1 UNK         0.0634 
    137 H137       35.1301   24.2610    3.5286 H         1 UNK         0.0634 
@<TRIPOS>BOND
     1    1    2 1    
     2    1   72 1    
     3    1   73 1    
     4    1   74 1    
     5    2    3 2    
     6    2    4 am   BACKBONE|DICT|INTERRES
     7    4    5 1    
     8    4   75 1    
     9    5    6 1    
    10    5   35 1    
    11    5   76 1    
    12    6    7 1    
    13    6   77 1    
    14    6   78 1    
    15    7    8 1    
    16    8    9 1    
    17    8   79 1    
    18    8   80 1    
    19    9   10 ar   
    20    9   14 ar   
    21   10   11 ar   
    22   10   81 1    
    23   11   12 ar   
    24   11   71 1    
    25   12   13 ar   
    26   12   82 1    
    27   13   14 ar   
    28   13   15 1    
    29   14   83 1    
    30   15   16 1    
    31   15   84 1    
    32   15   85 1    
    33   16   17 1    
    34   17   18 1    
    35   17   86 1    
    36   17   87 1    
    37   18   19 1    
    38   18   37 1    
    39   18   88 1    
    40   19   20 am   BACKBONE|DICT|INTERRES
    41   19   89 1    
    42   20   21 2    
    43   20   22 1    
    44   22   23 1    
    45   22   24 1    
    46   22   90 1    
    47   23   91 1    
    48   23   92 1    
    49   23   93 1    
    50   24   25 am   BACKBONE|DICT|INTERRES
    51   24   94 1    
    52   25   26 2    
    53   25   27 1    
    54   27   28 1    
    55   27   29 1    
    56   27   95 1    
    57   28   96 1    
    58   28   97 1    
    59   28   98 1    
    60   29   30 am   BACKBONE|DICT|INTERRES
    61   29   99 1    
    62   30   31 2    
    63   30   32 1    
    64   32   33 1    
    65   32   34 1    
    66   32  100 1    
    67   33  101 1    
    68   33  102 1    
    69   33  103 1    
    70   34   35 am   BACKBONE|DICT|INTERRES
    71   34  104 1    
    72   35   36 2    
    73   37   38 2    
    74   37   39 am   BACKBONE|DICT|INTERRES
    75   39   40 1    
    76   39  105 1    
    77   40   41 1    
    78   40   42 1    
    79   40  106 1    
    80   41  107 1    
    81   41  108 1    
    82   41  109 1    
    83   42   43 2    
    84   42   44 am   BACKBONE|DICT|INTERRES
    85   44   45 1    
    86   44  110 1    
    87   45   46 1    
    88   45   47 1    
    89   45  111 1    
    90   46  112 1    
    91   46  113 1    
    92   46  114 1    
    93   47   48 2    
    94   47   49 am   BACKBONE|DICT|INTERRES
    95   49   50 1    
    96   49  115 1    
    97   50   51 1    
    98   50   52 1    
    99   50  116 1    
   100   51  117 1    
   101   51  118 1    
   102   51  119 1    
   103   52   53 2    
   104   52   54 am   BACKBONE|DICT|INTERRES
   105   54   55 1    
   106   54  120 1    
   107   55   56 1    
   108   55   57 1    
   109   55  121 1    
   110   56  122 1    
   111   56  123 1    
   112   56  124 1    
   113   57   58 2    
   114   57   59 am   BACKBONE|DICT|INTERRES
   115   59   60 1    
   116   59  125 1    
   117   60   61 1    
   118   60   62 1    
   119   60  126 1    
   120   61  127 1    
   121   61  128 1    
   122   61  129 1    
   123   62   63 2    
   124   62   64 am   BACKBONE|DICT|INTERRES
   125   64   65 1    
   126   64  130 1    
   127   65   66 1    
   128   65   69 1    
   129   65  131 1    
   130   66   67 am   BACKBONE|DICT|INTERRES
   131   66   68 2    
   132   67  132 1    
   133   67  133 1    
   134   69   70 1    
   135   69  134 1    
   136   69  135 1    
   137   70   71 1    
   138   71  136 1    
   139   71  137 1    
@<TRIPOS>SUBSTRUCTURE
     1 UNK         1 GROUP             0       ****    0 ROOT    
