@<TRIPOS>MOLECULE
3R136
137   139    1
SMALL
USER_CHARGES


@<TRIPOS>ATOM
      1 CA         28.9728   27.2870    3.5581 C.3       0 UNK        -0.1979 
      2 C          28.3683   25.8946    3.6183 C.2       0 UNK         0.4864 
      3 O          27.3082   25.7182    4.2205 O.2       0 UNK        -0.5359 
      4 N          29.0177   24.9008    2.9973 N.am      1 UNK        -0.4318 
      5 CA         28.6325   23.4823    3.0346 C.3       1 UNK         0.0824 
      6 C6         29.8374   22.5332    2.7953 C.3       12 UNK        -0.0944 
      7 S7         31.2300   22.8342    3.9393 S.3       12 UNK        -0.2672 
      8 C8         32.5813   23.2613    2.7941 C.3       12 UNK         0.0333 
      9 C9         32.3964   24.6441    2.1870 C.ar      12 UNK        -0.0807 
     10 C10        32.8492   25.7768    2.8694 C.ar      12 UNK        -0.0894 
     11 C11        32.6862   27.0494    2.3138 C.ar      12 UNK        -0.0804 
     12 C12        32.0448   27.1883    1.0799 C.ar      12 UNK        -0.0824 
     13 C13        31.5735   26.0636    0.3983 C.ar      12 UNK        -0.0762 
     14 C14        31.7738   24.7934    0.9444 C.ar      12 UNK        -0.0782 
     15 C15        30.8324   26.2097   -0.9207 C.3       12 UNK         0.0230 
     16 S16        29.0457   25.9465   -0.6965 S.3       12 UNK        -0.2608 
     17 C17        28.5095   27.5377    0.0225 C.3       12 UNK        -0.0989 
     18 CA         27.7173   28.4019   -0.9879 C.3       5 UNK         0.0716 
     19 N          26.5441   27.6870   -1.4825 N.am      5 UNK        -0.4135 
     20 C          25.8268   27.9990   -2.5673 C.2       4 UNK         0.5031 
     21 O          26.0520   28.9817   -3.2766 O.2       4 UNK        -0.5229 
     22 CA         24.6694   27.0380   -2.9161 C.3       4 UNK         0.0329 
     23 CB         24.3094   27.0588   -4.4170 C.3       4 UNK        -0.2001 
     24 N          24.8917   25.6598   -2.4491 N.am      4 UNK        -0.4303 
     25 C          25.8830   24.8231   -2.7914 C.2       3 UNK         0.5044 
     26 O          26.7566   25.1016   -3.6147 O.2       3 UNK        -0.5152 
     27 CA         25.9024   23.4503   -2.0828 C.3       3 UNK         0.0319 
     28 CB         27.1098   22.5902   -2.5020 C.3       3 UNK        -0.2001 
     29 N          25.8849   23.5310   -0.6164 N.am      3 UNK        -0.4354 
     30 C          24.8436   23.8596    0.1568 C.2       2 UNK         0.4964 
     31 O          23.7663   24.2458   -0.2995 O.2       2 UNK        -0.5047 
     32 CA         24.9881   23.7371    1.6879 C.3       2 UNK         0.0288 
     33 CB         24.3576   22.4177    2.1748 C.3       2 UNK        -0.2113 
     34 N          26.3334   23.9023    2.2642 N.am      2 UNK        -0.4145 
     35 C          27.4405   23.1637    2.0985 C.2       1 UNK         0.5006 
     36 O          27.5385   22.2653    1.2604 O.2       1 UNK        -0.5103 
     37 C          27.2849   29.7401   -0.3597 C.2       5 UNK         0.5055 
     38 O          26.5157   29.7323    0.6040 O.2       5 UNK        -0.5220 
     39 N          27.7717   30.8561   -0.9185 N.am      6 UNK        -0.4450 
     40 CA         27.4653   32.2113   -0.4480 C.3       6 UNK         0.0367 
     41 CB         27.6736   33.2064   -1.6016 C.3       6 UNK        -0.1929 
     42 C          28.3007   32.6286    0.7754 C.2       6 UNK         0.5070 
     43 O          27.8469   33.4636    1.5589 O.2       6 UNK        -0.5237 
     44 N          29.5075   32.0633    0.9083 N.am      7 UNK        -0.4739 
     45 CA         30.4194   32.2977    2.0292 C.3       7 UNK         0.0276 
     46 CB         31.8340   31.8583    1.6137 C.3       7 UNK        -0.1927 
     47 C          29.9760   31.5390    3.2906 C.2       7 UNK         0.5013 
     48 O          29.3437   30.4864    3.1808 O.2       7 UNK        -0.5193 
     49 N          30.3614   32.0605    4.4634 N.am      8 UNK        -0.4253 
     50 CA         30.2301   31.3748    5.7527 C.3       8 UNK         0.0242 
     51 CB         30.5119   32.3705    6.8896 C.3       8 UNK        -0.2000 
     52 C          31.1983   30.1828    5.8272 C.2       8 UNK         0.4948 
     53 O          32.2968   30.2725    5.2798 O.2       8 UNK        -0.5275 
     54 N          30.7825   29.1093    6.5146 N.am      9 UNK        -0.4246 
     55 CA         31.4079   27.7766    6.5242 C.3       9 UNK         0.0261 
     56 CB         30.5620   26.8352    7.3975 C.3       9 UNK        -0.1959 
     57 C          32.8933   27.6920    6.9293 C.2       9 UNK         0.5033 
     58 O          33.5315   26.6835    6.6233 O.2       9 UNK        -0.5390 
     59 N          33.4398   28.7338    7.5671 N.am      10 UNK        -0.4215 
     60 CA         34.8476   28.8591    7.9586 C.3       10 UNK         0.0240 
     61 CB         34.9526   29.9073    9.0832 C.3       10 UNK        -0.1982 
     62 C          35.7959   29.1612    6.7728 C.2       10 UNK         0.4970 
     63 O          36.6354   30.0583    6.8750 O.2       10 UNK        -0.4916 
     64 N          35.6618   28.4067    5.6758 N.am      11 UNK        -0.4279 
     65 CA         36.5866   28.4072    4.5328 C.3       11 UNK         0.1003 
     66 C          37.9204   27.6922    4.8834 C.2       11 UNK         0.5709 
     67 N          39.0248   28.1127    4.2816 N.am      11 UNK        -0.7358 
     68 O          37.9598   26.7413    5.6632 O.2       11 UNK        -0.4999 
     69 C69        35.9365   27.7804    3.2692 C.3       12 UNK        -0.0954 
     70 S70        34.7503   28.9098    2.4663 S.3       12 UNK        -0.2268 
     71 C71        33.1542   28.2831    3.0647 C.3       12 UNK         0.0203 
     72 H72        29.9060   27.3082    2.9985 H         1 UNK         0.0888 
     73 H73        28.2764   27.9809    3.0890 H         1 UNK         0.0888 
     74 H74        29.1688   27.6528    4.5638 H         1 UNK         0.0888 
     75 H75        29.8779   25.0992    2.5037 H         1 UNK         0.3017 
     76 H76        28.2737   23.2706    4.0446 H         1 UNK         0.0873 
     77 H77        30.1796   22.5955    1.7627 H         1 UNK         0.0745 
     78 H78        29.5274   21.4962    2.9375 H         1 UNK         0.0745 
     79 H79        32.6557   22.5028    2.0132 H         1 UNK         0.0705 
     80 H80        33.5256   23.2260    3.3396 H         1 UNK         0.0705 
     81 H81        33.3234   25.6663    3.8356 H         1 UNK         0.1334 
     82 H82        31.9029   28.1746    0.6597 H         1 UNK         0.1417 
     83 H83        31.4237   23.9245    0.4041 H         1 UNK         0.1562 
     84 H84        31.2106   25.4735   -1.6316 H         1 UNK         0.0748 
     85 H85        31.0097   27.1881   -1.3700 H         1 UNK         0.0748 
     86 H86        29.3720   28.0839    0.4072 H         1 UNK         0.0940 
     87 H87        27.8841   27.3087    0.8859 H         1 UNK         0.0940 
     88 H88        28.3684   28.6063   -1.8409 H         1 UNK         0.0703 
     89 H89        26.2841   26.8616   -0.9657 H         1 UNK         0.3081 
     90 H90        23.8020   27.4054   -2.3659 H         1 UNK         0.0719 
     91 H91        24.0042   28.0571   -4.7331 H         1 UNK         0.0809 
     92 H92        25.1551   26.7663   -5.0402 H         1 UNK         0.0809 
     93 H93        23.4815   26.3847   -4.6361 H         1 UNK         0.0809 
     94 H94        24.2428   25.3178   -1.7425 H         1 UNK         0.2990 
     95 H95        24.9993   22.9245   -2.3996 H         1 UNK         0.0690 
     96 H96        27.0711   21.6013   -2.0446 H         1 UNK         0.0788 
     97 H97        28.0527   23.0565   -2.2119 H         1 UNK         0.0788 
     98 H98        27.1342   22.4444   -3.5828 H         1 UNK         0.0788 
     99 H99        26.7087   23.1788   -0.1359 H         1 UNK         0.2993 
    100 H100       24.3969   24.5537    2.1059 H         1 UNK         0.0949 
    101 H101       24.9002   21.5476    1.8030 H         1 UNK         0.0767 
    102 H102       24.3422   22.3636    3.2635 H         1 UNK         0.0767 
    103 H103       23.3256   22.3265    1.8328 H         1 UNK         0.0767 
    104 H104       26.4123   24.6393    2.9629 H         1 UNK         0.3013 
    105 H105       28.3666   30.7797   -1.7316 H         1 UNK         0.3121 
    106 H106       26.4134   32.2515   -0.1557 H         1 UNK         0.0774 
    107 H107       27.4241   34.2216   -1.2896 H         1 UNK         0.0815 
    108 H108       28.7083   33.2174   -1.9464 H         1 UNK         0.0815 
    109 H109       27.0368   32.9657   -2.4532 H         1 UNK         0.0815 
    110 H110       29.7826   31.3613    0.2389 H         1 UNK         0.2987 
    111 H111       30.4336   33.3672    2.2518 H         1 UNK         0.0949 
    112 H112       32.1991   32.4427    0.7690 H         1 UNK         0.0806 
    113 H113       32.5454   31.9918    2.4304 H         1 UNK         0.0806 
    114 H114       31.8630   30.8058    1.3301 H         1 UNK         0.0806 
    115 H115       30.9172   32.9032    4.4603 H         1 UNK         0.3010 
    116 H116       29.2049   31.0095    5.8455 H         1 UNK         0.0829 
    117 H117       29.8255   33.2168    6.8554 H         1 UNK         0.0813 
    118 H118       30.3905   31.8967    7.8647 H         1 UNK         0.0813 
    119 H119       31.5295   32.7612    6.8419 H         1 UNK         0.0813 
    120 H120       29.8851   29.1685    6.9748 H         1 UNK         0.3038 
    121 H121       31.3603   27.4044    5.4995 H         1 UNK         0.0769 
    122 H122       30.9727   25.8241    7.3966 H         1 UNK         0.0811 
    123 H123       29.5378   26.7616    7.0310 H         1 UNK         0.0811 
    124 H124       30.5269   27.1714    8.4344 H         1 UNK         0.0811 
    125 H125       32.8600   29.5484    7.7060 H         1 UNK         0.3204 
    126 H126       35.1695   27.9017    8.3737 H         1 UNK         0.0748 
    127 H127       35.9739   29.9792    9.4600 H         1 UNK         0.0771 
    128 H128       34.6607   30.8998    8.7371 H         1 UNK         0.0771 
    129 H129       34.3178   29.6463    9.9303 H         1 UNK         0.0771 
    130 H130       34.9775   27.6589    5.7076 H         1 UNK         0.2980 
    131 H131       36.8320   29.4473    4.3076 H         1 UNK         0.0545 
    132 H132       39.8987   27.6532    4.4848 H         1 UNK         0.3459 
    133 H133       39.0032   28.8827    3.6309 H         1 UNK         0.3459 
    134 H134       36.6947   27.5564    2.5164 H         1 UNK         0.0616 
    135 H135       35.4614   26.8273    3.5043 H         1 UNK         0.0616 
    136 H136       32.4061   29.0691    2.9592 H         1 UNK         0.0634 
    137 H137       33.2338   28.0757    4.1289 H         1 UNK         0.0634 
@<TRIPOS>BOND
     1    1    2 1    
     2    1   72 1    
     3    1   73 1    
     4    1   74 1    
     5    2    3 2    
     6    2    4 am   BACKBONE|DICT|INTERRES
     7    4    5 1    
     8    4   75 1    
     9    5    6 1    
    10    5   35 1    
    11    5   76 1    
    12    6    7 1    
    13    6   77 1    
    14    6   78 1    
    15    7    8 1    
    16    8    9 1    
    17    8   79 1    
    18    8   80 1    
    19    9   10 ar   
    20    9   14 ar   
    21   10   11 ar   
    22   10   81 1    
    23   11   12 ar   
    24   11   71 1    
    25   12   13 ar   
    26   12   82 1    
    27   13   14 ar   
    28   13   15 1    
    29   14   83 1    
    30   15   16 1    
    31   15   84 1    
    32   15   85 1    
    33   16   17 1    
    34   17   18 1    
    35   17   86 1    
    36   17   87 1    
    37   18   19 1    
    38   18   37 1    
    39   18   88 1    
    40   19   20 am   BACKBONE|DICT|INTERRES
    41   19   89 1    
    42   20   21 2    
    43   20   22 1    
    44   22   23 1    
    45   22   24 1    
    46   22   90 1    
    47   23   91 1    
    48   23   92 1    
    49   23   93 1    
    50   24   25 am   BACKBONE|DICT|INTERRES
    51   24   94 1    
    52   25   26 2    
    53   25   27 1    
    54   27   28 1    
    55   27   29 1    
    56   27   95 1    
    57   28   96 1    
    58   28   97 1    
    59   28   98 1    
    60   29   30 am   BACKBONE|DICT|INTERRES
    61   29   99 1    
    62   30   31 2    
    63   30   32 1    
    64   32   33 1    
    65   32   34 1    
    66   32  100 1    
    67   33  101 1    
    68   33  102 1    
    69   33  103 1    
    70   34   35 am   BACKBONE|DICT|INTERRES
    71   34  104 1    
    72   35   36 2    
    73   37   38 2    
    74   37   39 am   BACKBONE|DICT|INTERRES
    75   39   40 1    
    76   39  105 1    
    77   40   41 1    
    78   40   42 1    
    79   40  106 1    
    80   41  107 1    
    81   41  108 1    
    82   41  109 1    
    83   42   43 2    
    84   42   44 am   BACKBONE|DICT|INTERRES
    85   44   45 1    
    86   44  110 1    
    87   45   46 1    
    88   45   47 1    
    89   45  111 1    
    90   46  112 1    
    91   46  113 1    
    92   46  114 1    
    93   47   48 2    
    94   47   49 am   BACKBONE|DICT|INTERRES
    95   49   50 1    
    96   49  115 1    
    97   50   51 1    
    98   50   52 1    
    99   50  116 1    
   100   51  117 1    
   101   51  118 1    
   102   51  119 1    
   103   52   53 2    
   104   52   54 am   BACKBONE|DICT|INTERRES
   105   54   55 1    
   106   54  120 1    
   107   55   56 1    
   108   55   57 1    
   109   55  121 1    
   110   56  122 1    
   111   56  123 1    
   112   56  124 1    
   113   57   58 2    
   114   57   59 am   BACKBONE|DICT|INTERRES
   115   59   60 1    
   116   59  125 1    
   117   60   61 1    
   118   60   62 1    
   119   60  126 1    
   120   61  127 1    
   121   61  128 1    
   122   61  129 1    
   123   62   63 2    
   124   62   64 am   BACKBONE|DICT|INTERRES
   125   64   65 1    
   126   64  130 1    
   127   65   66 1    
   128   65   69 1    
   129   65  131 1    
   130   66   67 am   BACKBONE|DICT|INTERRES
   131   66   68 2    
   132   67  132 1    
   133   67  133 1    
   134   69   70 1    
   135   69  134 1    
   136   69  135 1    
   137   70   71 1    
   138   71  136 1    
   139   71  137 1    
@<TRIPOS>SUBSTRUCTURE
     1 UNK         1 GROUP             0       ****    0 ROOT    
