@<TRIPOS>MOLECULE
3R136
137   139    1
SMALL
USER_CHARGES


@<TRIPOS>ATOM
      1 CA         25.1442   26.6436    4.0576 C.3       0 UNK        -0.1979 
      2 C          25.6495   25.2125    3.9621 C.2       0 UNK         0.4864 
      3 O          25.1990   24.3493    4.7151 O.2       0 UNK        -0.5359 
      4 N          26.5663   24.9485    3.0242 N.am      1 UNK        -0.4318 
      5 CA         27.1981   23.6446    2.7794 C.3       1 UNK         0.0824 
      6 C6         28.6306   23.8526    2.2178 C.3       12 UNK        -0.0944 
      7 S7         29.8278   22.5862    2.7651 S.3       12 UNK        -0.2672 
      8 C8         31.0990   23.6055    3.5988 C.3       12 UNK         0.0333 
      9 C9         31.9722   24.4837    2.6943 C.ar      12 UNK        -0.0807 
     10 C10        33.0778   25.1293    3.2588 C.ar      12 UNK        -0.0894 
     11 C11        33.9039   25.9550    2.4885 C.ar      12 UNK        -0.0804 
     12 C12        33.6094   26.1460    1.1354 C.ar      12 UNK        -0.0824 
     13 C13        32.4997   25.5262    0.5560 C.ar      12 UNK        -0.0762 
     14 C14        31.7072   24.6793    1.3330 C.ar      12 UNK        -0.0782 
     15 C15        32.1643   25.7507   -0.9140 C.3       12 UNK         0.0230 
     16 S16        30.4244   26.2402   -1.1745 S.3       12 UNK        -0.2608 
     17 C17        30.4219   27.9484   -0.5234 C.3       12 UNK        -0.0989 
     18 CA         29.0530   28.4369    0.0339 C.3       5 UNK         0.0716 
     19 N          27.9317   28.2147   -0.8738 N.am      5 UNK        -0.4135 
     20 C          27.7357   28.7897   -2.0633 C.2       4 UNK         0.5031 
     21 O          28.5019   29.6260   -2.5462 O.2       4 UNK        -0.5229 
     22 CA         26.4743   28.3578   -2.8478 C.3       4 UNK         0.0329 
     23 CB         26.4624   28.8957   -4.2917 C.3       4 UNK        -0.2001 
     24 N          26.2897   26.9011   -2.8858 N.am      4 UNK        -0.4303 
     25 C          25.8215   26.1590   -1.8755 C.2       3 UNK         0.5044 
     26 O          25.4792   26.6356   -0.7884 O.2       3 UNK        -0.5152 
     27 CA         25.7603   24.6405   -2.0934 C.3       3 UNK         0.0319 
     28 CB         27.1700   24.0461   -2.2895 C.3       3 UNK        -0.2001 
     29 N          25.1444   24.0640   -0.9059 N.am      3 UNK        -0.4354 
     30 C          24.6134   22.8464   -0.7568 C.2       2 UNK         0.4964 
     31 O          24.5149   22.0208   -1.6664 O.2       2 UNK        -0.5047 
     32 CA         24.1324   22.5101    0.6717 C.3       2 UNK         0.0288 
     33 CB         23.8537   21.0066    0.8880 C.3       2 UNK        -0.2113 
     34 N          25.0516   23.0441    1.6909 N.am      2 UNK        -0.4145 
     35 C          26.3482   22.7291    1.8594 C.2       1 UNK         0.5006 
     36 O          26.8905   21.7860    1.2808 O.2       1 UNK        -0.5103 
     37 C          28.6981   27.8164    1.3976 C.2       5 UNK         0.5055 
     38 O          27.7863   26.9860    1.4775 O.2       5 UNK        -0.5220 
     39 N          29.4020   28.2418    2.4507 N.am      6 UNK        -0.4450 
     40 CA         29.2250   27.7813    3.8261 C.3       6 UNK         0.0367 
     41 CB         28.2404   28.7119    4.5549 C.3       6 UNK        -0.1929 
     42 C          30.5817   27.7716    4.5360 C.2       6 UNK         0.5070 
     43 O          31.4627   28.5526    4.1753 O.2       6 UNK        -0.5237 
     44 N          30.7122   26.9220    5.5634 N.am      7 UNK        -0.4739 
     45 CA         31.9120   26.7769    6.3945 C.3       7 UNK         0.0276 
     46 CB         31.8829   25.4000    7.0855 C.3       7 UNK        -0.1927 
     47 C          32.0595   27.9345    7.4004 C.2       7 UNK         0.5013 
     48 O          31.9107   27.7357    8.6080 O.2       7 UNK        -0.5193 
     49 N          32.3349   29.1274    6.8724 N.am      8 UNK        -0.4253 
     50 CA         32.5812   30.3655    7.6037 C.3       8 UNK         0.0242 
     51 CB         31.2388   31.0333    7.9775 C.3       8 UNK        -0.2000 
     52 C          33.5053   31.2323    6.7355 C.2       8 UNK         0.4948 
     53 O          34.4309   30.6968    6.1242 O.2       8 UNK        -0.5275 
     54 N          33.2397   32.5430    6.6579 N.am      9 UNK        -0.4246 
     55 CA         33.8930   33.4476    5.7053 C.3       9 UNK         0.0261 
     56 CB         33.6484   34.9039    6.1327 C.3       9 UNK        -0.1959 
     57 C          33.4114   33.2221    4.2587 C.2       9 UNK         0.5033 
     58 O          34.1677   33.4692    3.3188 O.2       9 UNK        -0.5390 
     59 N          32.1693   32.7439    4.1025 N.am      10 UNK        -0.4215 
     60 CA         31.4838   32.5076    2.8308 C.3       10 UNK         0.0240 
     61 CB         29.9639   32.5972    3.0705 C.3       10 UNK        -0.1982 
     62 C          31.8893   31.1873    2.1428 C.2       10 UNK         0.4970 
     63 O          31.0225   30.4965    1.6066 O.2       10 UNK        -0.4916 
     64 N          33.1859   30.8580    2.1428 N.am      11 UNK        -0.4279 
     65 CA         33.7408   29.7140    1.3993 C.3       11 UNK         0.1003 
     66 C          33.8716   29.9621   -0.1331 C.2       11 UNK         0.5709 
     67 N          33.7225   31.1843   -0.6312 N.am      11 UNK        -0.7358 
     68 O          34.1016   29.0215   -0.8880 O.2       11 UNK        -0.4999 
     69 C69        35.0806   29.2218    2.0068 C.3       12 UNK        -0.0954 
     70 S70        34.8433   28.3438    3.5886 S.3       12 UNK        -0.2268 
     71 C71        35.1317   26.6075    3.1133 C.3       12 UNK         0.0203 
     72 H72        25.5061   27.2554    3.2310 H         1 UNK         0.0888 
     73 H73        24.0549   26.6610    4.0367 H         1 UNK         0.0888 
     74 H74        25.4751   27.0969    4.9915 H         1 UNK         0.0888 
     75 H75        26.8982   25.7050    2.4242 H         1 UNK         0.3017 
     76 H76        27.2762   23.1299    3.7396 H         1 UNK         0.0873 
     77 H77        28.6248   23.9007    1.1268 H         1 UNK         0.0745 
     78 H78        29.0205   24.8194    2.5354 H         1 UNK         0.0745 
     79 H79        30.6042   24.2392    4.3350 H         1 UNK         0.0705 
     80 H80        31.7473   22.9305    4.1594 H         1 UNK         0.0705 
     81 H81        33.3043   24.9783    4.3048 H         1 UNK         0.1334 
     82 H82        34.2462   26.7765    0.5317 H         1 UNK         0.1417 
     83 H83        30.8762   24.1876    0.8535 H         1 UNK         0.1562 
     84 H84        32.3534   24.8255   -1.4598 H         1 UNK         0.0748 
     85 H85        32.8149   26.5083   -1.3540 H         1 UNK         0.0748 
     86 H86        30.7402   28.6088   -1.3312 H         1 UNK         0.0940 
     87 H87        31.1940   28.0441    0.2406 H         1 UNK         0.0940 
     88 H88        29.1113   29.5152    0.1896 H         1 UNK         0.0703 
     89 H89        27.2362   27.5619   -0.5193 H         1 UNK         0.3081 
     90 H90        25.6205   28.7991   -2.3291 H         1 UNK         0.0719 
     91 H91        27.3045   28.5144   -4.8706 H         1 UNK         0.0809 
     92 H92        25.5443   28.6206   -4.8111 H         1 UNK         0.0809 
     93 H93        26.5232   29.9849   -4.3054 H         1 UNK         0.0809 
     94 H94        26.5858   26.4350   -3.7315 H         1 UNK         0.2990 
     95 H95        25.1353   24.4337   -2.9642 H         1 UNK         0.0690 
     96 H96        27.1338   22.9629   -2.4063 H         1 UNK         0.0788 
     97 H97        27.8187   24.2662   -1.4401 H         1 UNK         0.0788 
     98 H98        27.6529   24.4469   -3.1811 H         1 UNK         0.0788 
     99 H99        25.1236   24.7133   -0.1280 H         1 UNK         0.2993 
    100 H100       23.1870   23.0389    0.8028 H         1 UNK         0.0949 
    101 H101       23.5258   20.8071    1.9082 H         1 UNK         0.0767 
    102 H102       23.0649   20.6581    0.2202 H         1 UNK         0.0767 
    103 H103       24.7347   20.3948    0.6924 H         1 UNK         0.0767 
    104 H104       24.6954   23.8112    2.2439 H         1 UNK         0.3013 
    105 H105       30.1525   28.9183    2.3148 H         1 UNK         0.3121 
    106 H106       28.8310   26.7639    3.8280 H         1 UNK         0.0774 
    107 H107       28.6366   29.7240    4.6422 H         1 UNK         0.0815 
    108 H108       28.0353   28.3537    5.5644 H         1 UNK         0.0815 
    109 H109       27.2874   28.7745    4.0311 H         1 UNK         0.0815 
    110 H110       29.9166   26.3620    5.8333 H         1 UNK         0.2987 
    111 H111       32.7913   26.8077    5.7471 H         1 UNK         0.0949 
    112 H112       31.0064   25.2857    7.7245 H         1 UNK         0.0806 
    113 H113       31.8784   24.5866    6.3615 H         1 UNK         0.0806 
    114 H114       32.7637   25.2616    7.7140 H         1 UNK         0.0806 
    115 H115       32.4347   29.1824    5.8613 H         1 UNK         0.3010 
    116 H116       33.1306   30.1359    8.5190 H         1 UNK         0.0829 
    117 H117       30.6178   30.3592    8.5679 H         1 UNK         0.0813 
    118 H118       31.3899   31.9268    8.5842 H         1 UNK         0.0813 
    119 H119       30.6645   31.3149    7.0940 H         1 UNK         0.0813 
    120 H120       32.4895   32.9238    7.2171 H         1 UNK         0.3038 
    121 H121       34.9692   33.2617    5.7289 H         1 UNK         0.0769 
    122 H122       32.5869   35.1545    6.1346 H         1 UNK         0.0811 
    123 H123       34.1452   35.5973    5.4524 H         1 UNK         0.0811 
    124 H124       34.0416   35.0958    7.1313 H         1 UNK         0.0811 
    125 H125       31.6416   32.5310    4.9351 H         1 UNK         0.3204 
    126 H126       31.7549   33.3106    2.1422 H         1 UNK         0.0748 
    127 H127       29.4111   32.5132    2.1336 H         1 UNK         0.0771 
    128 H128       29.6135   31.8012    3.7283 H         1 UNK         0.0771 
    129 H129       29.6869   33.5515    3.5189 H         1 UNK         0.0771 
    130 H130       33.8457   31.4851    2.5853 H         1 UNK         0.2980 
    131 H131       33.0286   28.8930    1.4928 H         1 UNK         0.0545 
    132 H132       33.5418   31.9682   -0.0258 H         1 UNK         0.3459 
    133 H133       33.8057   31.3225   -1.6258 H         1 UNK         0.3459 
    134 H134       35.6113   28.5592    1.3215 H         1 UNK         0.0616 
    135 H135       35.7522   30.0649    2.1764 H         1 UNK         0.0616 
    136 H136       35.4258   26.0572    4.0082 H         1 UNK         0.0634 
    137 H137       35.9816   26.5409    2.4328 H         1 UNK         0.0634 
@<TRIPOS>BOND
     1    1    2 1    
     2    1   72 1    
     3    1   73 1    
     4    1   74 1    
     5    2    3 2    
     6    2    4 am   BACKBONE|DICT|INTERRES
     7    4    5 1    
     8    4   75 1    
     9    5    6 1    
    10    5   35 1    
    11    5   76 1    
    12    6    7 1    
    13    6   77 1    
    14    6   78 1    
    15    7    8 1    
    16    8    9 1    
    17    8   79 1    
    18    8   80 1    
    19    9   10 ar   
    20    9   14 ar   
    21   10   11 ar   
    22   10   81 1    
    23   11   12 ar   
    24   11   71 1    
    25   12   13 ar   
    26   12   82 1    
    27   13   14 ar   
    28   13   15 1    
    29   14   83 1    
    30   15   16 1    
    31   15   84 1    
    32   15   85 1    
    33   16   17 1    
    34   17   18 1    
    35   17   86 1    
    36   17   87 1    
    37   18   19 1    
    38   18   37 1    
    39   18   88 1    
    40   19   20 am   BACKBONE|DICT|INTERRES
    41   19   89 1    
    42   20   21 2    
    43   20   22 1    
    44   22   23 1    
    45   22   24 1    
    46   22   90 1    
    47   23   91 1    
    48   23   92 1    
    49   23   93 1    
    50   24   25 am   BACKBONE|DICT|INTERRES
    51   24   94 1    
    52   25   26 2    
    53   25   27 1    
    54   27   28 1    
    55   27   29 1    
    56   27   95 1    
    57   28   96 1    
    58   28   97 1    
    59   28   98 1    
    60   29   30 am   BACKBONE|DICT|INTERRES
    61   29   99 1    
    62   30   31 2    
    63   30   32 1    
    64   32   33 1    
    65   32   34 1    
    66   32  100 1    
    67   33  101 1    
    68   33  102 1    
    69   33  103 1    
    70   34   35 am   BACKBONE|DICT|INTERRES
    71   34  104 1    
    72   35   36 2    
    73   37   38 2    
    74   37   39 am   BACKBONE|DICT|INTERRES
    75   39   40 1    
    76   39  105 1    
    77   40   41 1    
    78   40   42 1    
    79   40  106 1    
    80   41  107 1    
    81   41  108 1    
    82   41  109 1    
    83   42   43 2    
    84   42   44 am   BACKBONE|DICT|INTERRES
    85   44   45 1    
    86   44  110 1    
    87   45   46 1    
    88   45   47 1    
    89   45  111 1    
    90   46  112 1    
    91   46  113 1    
    92   46  114 1    
    93   47   48 2    
    94   47   49 am   BACKBONE|DICT|INTERRES
    95   49   50 1    
    96   49  115 1    
    97   50   51 1    
    98   50   52 1    
    99   50  116 1    
   100   51  117 1    
   101   51  118 1    
   102   51  119 1    
   103   52   53 2    
   104   52   54 am   BACKBONE|DICT|INTERRES
   105   54   55 1    
   106   54  120 1    
   107   55   56 1    
   108   55   57 1    
   109   55  121 1    
   110   56  122 1    
   111   56  123 1    
   112   56  124 1    
   113   57   58 2    
   114   57   59 am   BACKBONE|DICT|INTERRES
   115   59   60 1    
   116   59  125 1    
   117   60   61 1    
   118   60   62 1    
   119   60  126 1    
   120   61  127 1    
   121   61  128 1    
   122   61  129 1    
   123   62   63 2    
   124   62   64 am   BACKBONE|DICT|INTERRES
   125   64   65 1    
   126   64  130 1    
   127   65   66 1    
   128   65   69 1    
   129   65  131 1    
   130   66   67 am   BACKBONE|DICT|INTERRES
   131   66   68 2    
   132   67  132 1    
   133   67  133 1    
   134   69   70 1    
   135   69  134 1    
   136   69  135 1    
   137   70   71 1    
   138   71  136 1    
   139   71  137 1    
@<TRIPOS>SUBSTRUCTURE
     1 UNK         1 GROUP             0       ****    0 ROOT    
