@<TRIPOS>MOLECULE
3R136
137   139    1
SMALL
USER_CHARGES


@<TRIPOS>ATOM
      1 CA         26.6694   21.9761    2.2162 C.3       0 UNK        -0.1979 
      2 C          27.3128   21.1951    1.0807 C.2       0 UNK         0.4864 
      3 O          26.9681   20.0321    0.8666 O.2       0 UNK        -0.5359 
      4 N          28.2416   21.8250    0.3502 N.am      1 UNK        -0.4318 
      5 CA         28.8968   21.2640   -0.8382 C.3       1 UNK         0.0824 
      6 C6         30.2306   21.9844   -1.1663 C.3       12 UNK        -0.0944 
      7 S7         30.0989   23.8097   -1.2459 S.3       12 UNK        -0.2672 
      8 C8         31.7928   24.3156   -0.7949 C.3       12 UNK         0.0333 
      9 C9         31.9853   24.6343    0.6879 C.ar      12 UNK        -0.0807 
     10 C10        32.7640   25.7382    1.0516 C.ar      12 UNK        -0.0894 
     11 C11        33.0076   26.0328    2.3963 C.ar      12 UNK        -0.0804 
     12 C12        32.4587   25.2172    3.3903 C.ar      12 UNK        -0.0824 
     13 C13        31.6789   24.1103    3.0446 C.ar      12 UNK        -0.0762 
     14 C14        31.4486   23.8234    1.6956 C.ar      12 UNK        -0.0782 
     15 C15        31.1193   23.1923    4.1209 C.3       12 UNK         0.0230 
     16 S16        29.3191   23.3747    4.3051 S.3       12 UNK        -0.2608 
     17 C17        29.1739   24.9240    5.2599 C.3       12 UNK        -0.0989 
     18 CA         28.6319   26.1144    4.4236 C.3       5 UNK         0.0716 
     19 N          27.3570   25.7938    3.7744 N.am      5 UNK        -0.4135 
     20 C          26.8731   26.3995    2.6841 C.2       4 UNK         0.5031 
     21 O          27.4582   27.3055    2.0849 O.2       4 UNK        -0.5229 
     22 CA         25.4735   25.9536    2.2258 C.3       4 UNK         0.0329 
     23 CB         24.3904   26.7343    2.9892 C.3       4 UNK        -0.2001 
     24 N          25.2791   26.1527    0.7882 N.am      4 UNK        -0.4303 
     25 C          25.9111   25.4549   -0.1621 C.2       3 UNK         0.5044 
     26 O          26.6757   24.5112    0.0676 O.2       3 UNK        -0.5152 
     27 CA         25.6534   25.8937   -1.6156 C.3       3 UNK         0.0319 
     28 CB         26.4746   27.1486   -1.9544 C.3       3 UNK        -0.2001 
     29 N          26.0467   24.8172   -2.5205 N.am      3 UNK        -0.4354 
     30 C          25.3077   23.7252   -2.7585 C.2       2 UNK         0.4964 
     31 O          24.1002   23.6353   -2.5363 O.2       2 UNK        -0.5047 
     32 CA         26.0987   22.4946   -3.2030 C.3       2 UNK         0.0288 
     33 CB         26.7348   22.6995   -4.5942 C.3       2 UNK        -0.2113 
     34 N          27.1023   22.2627   -2.1654 N.am      2 UNK        -0.4145 
     35 C          27.9549   21.2385   -2.0612 C.2       1 UNK         0.5006 
     36 O          28.0168   20.3039   -2.8620 O.2       1 UNK        -0.5103 
     37 C          28.4671   27.3909    5.2788 C.2       5 UNK         0.5055 
     38 O          28.4416   27.3111    6.5083 O.2       5 UNK        -0.5220 
     39 N          28.3022   28.5391    4.6160 N.am      6 UNK        -0.4450 
     40 CA         28.1149   29.8546    5.2185 C.3       6 UNK         0.0367 
     41 CB         26.6470   30.0339    5.6486 C.3       6 UNK        -0.1929 
     42 C          28.5201   30.9212    4.1971 C.2       6 UNK         0.5070 
     43 O          28.4474   30.6633    2.9931 O.2       6 UNK        -0.5237 
     44 N          28.9191   32.0987    4.7001 N.am      7 UNK        -0.4739 
     45 CA         29.4213   33.2524    3.9396 C.3       7 UNK         0.0276 
     46 CB         28.2806   33.9034    3.1231 C.3       7 UNK        -0.1927 
     47 C          30.6696   32.8834    3.1099 C.2       7 UNK         0.5013 
     48 O          31.5288   32.1677    3.6289 O.2       7 UNK        -0.5193 
     49 N          30.7537   33.3708    1.8620 N.am      8 UNK        -0.4253 
     50 CA         31.7955   33.0830    0.8671 C.3       8 UNK         0.0242 
     51 CB         31.5846   31.6657    0.2871 C.3       8 UNK        -0.2000 
     52 C          33.2163   33.3415    1.4104 C.2       8 UNK         0.4948 
     53 O          33.4637   34.4200    1.9543 O.2       8 UNK        -0.5275 
     54 N          34.1166   32.3568    1.2961 N.am      9 UNK        -0.4246 
     55 CA         35.4934   32.3933    1.7984 C.3       9 UNK         0.0261 
     56 CB         36.3447   31.4149    0.9663 C.3       9 UNK        -0.1959 
     57 C          35.5750   32.1077    3.3141 C.2       9 UNK         0.5033 
     58 O          36.3937   31.2888    3.7367 O.2       9 UNK        -0.5390 
     59 N          34.7198   32.7824    4.0979 N.am      10 UNK        -0.4215 
     60 CA         34.5286   32.6467    5.5483 C.3       10 UNK         0.0240 
     61 CB         35.7476   33.2054    6.3131 C.3       10 UNK        -0.1982 
     62 C          34.1619   31.2065    5.9613 C.2       10 UNK         0.4970 
     63 O          34.7692   30.6468    6.8766 O.2       10 UNK        -0.4916 
     64 N          33.1824   30.6300    5.2561 N.am      11 UNK        -0.4279 
     65 CA         32.7190   29.2462    5.4260 C.3       11 UNK         0.1003 
     66 C          31.8673   28.9984    6.7019 C.2       11 UNK         0.5709 
     67 N          31.3686   30.0256    7.3807 N.am      11 UNK        -0.7358 
     68 O          31.6736   27.8495    7.0895 O.2       11 UNK        -0.4999 
     69 C69        31.9840   28.7341    4.1603 C.3       12 UNK        -0.0954 
     70 S70        33.0281   28.7992    2.6665 S.3       12 UNK        -0.2268 
     71 C71        33.9019   27.2076    2.7659 C.3       12 UNK         0.0203 
     72 H72        26.8308   21.4652    3.1650 H         1 UNK         0.0888 
     73 H73        27.0831   22.9806    2.2978 H         1 UNK         0.0888 
     74 H74        25.5964   22.0654    2.0498 H         1 UNK         0.0888 
     75 H75        28.4434   22.7989    0.5388 H         1 UNK         0.3017 
     76 H76        29.1402   20.2218   -0.6190 H         1 UNK         0.0873 
     77 H77        30.6420   21.6254   -2.1120 H         1 UNK         0.0745 
     78 H78        30.9725   21.7119   -0.4155 H         1 UNK         0.0745 
     79 H79        32.0358   25.1938   -1.3951 H         1 UNK         0.0705 
     80 H80        32.5035   23.5432   -1.0913 H         1 UNK         0.0705 
     81 H81        33.1991   26.3666    0.2862 H         1 UNK         0.1334 
     82 H82        32.6526   25.4347    4.4319 H         1 UNK         0.1417 
     83 H83        30.8525   22.9601    1.4417 H         1 UNK         0.1562 
     84 H84        31.6093   23.3620    5.0809 H         1 UNK         0.0748 
     85 H85        31.3369   22.1576    3.8518 H         1 UNK         0.0748 
     86 H86        28.5161   24.7187    6.1069 H         1 UNK         0.0940 
     87 H87        30.1433   25.1798    5.6922 H         1 UNK         0.0940 
     88 H88        29.3717   26.3319    3.6490 H         1 UNK         0.0703 
     89 H89        26.8037   25.0815    4.2271 H         1 UNK         0.3081 
     90 H90        25.3561   24.8893    2.4401 H         1 UNK         0.0719 
     91 H91        23.3898   26.4115    2.7009 H         1 UNK         0.0809 
     92 H92        24.4799   26.5814    4.0656 H         1 UNK         0.0809 
     93 H93        24.4634   27.8076    2.8072 H         1 UNK         0.0809 
     94 H94        24.7013   26.9339    0.5148 H         1 UNK         0.2990 
     95 H95        24.5907   26.1115   -1.7425 H         1 UNK         0.0690 
     96 H96        26.3204   27.4563   -2.9888 H         1 UNK         0.0788 
     97 H97        27.5432   26.9827   -1.8087 H         1 UNK         0.0788 
     98 H98        26.1883   27.9891   -1.3209 H         1 UNK         0.0788 
     99 H99        27.0335   24.7677   -2.7300 H         1 UNK         0.2993 
    100 H100       25.4216   21.6387   -3.2353 H         1 UNK         0.0949 
    101 H101       27.5013   23.4751   -4.5844 H         1 UNK         0.0767 
    102 H102       27.1969   21.7829   -4.9605 H         1 UNK         0.0767 
    103 H103       25.9815   22.9907   -5.3274 H         1 UNK         0.0767 
    104 H104       27.1057   22.9492   -1.4165 H         1 UNK         0.3013 
    105 H105       28.2911   28.5321    3.5979 H         1 UNK         0.3121 
    106 H106       28.7664   29.9424    6.0904 H         1 UNK         0.0774 
    107 H107       26.4822   31.0213    6.0816 H         1 UNK         0.0815 
    108 H108       25.9666   29.9297    4.8024 H         1 UNK         0.0815 
    109 H109       26.3592   29.3000    6.4015 H         1 UNK         0.0815 
    110 H110       28.9525   32.1986    5.7052 H         1 UNK         0.2987 
    111 H111       29.7594   33.9829    4.6761 H         1 UNK         0.0949 
    112 H112       27.9394   33.2609    2.3103 H         1 UNK         0.0806 
    113 H113       27.4191   34.1150    3.7566 H         1 UNK         0.0806 
    114 H114       28.5920   34.8548    2.6902 H         1 UNK         0.0806 
    115 H115       30.0128   33.9818    1.5499 H         1 UNK         0.3010 
    116 H116       31.6538   33.7967    0.0542 H         1 UNK         0.0829 
    117 H117       30.5847   31.5647   -0.1354 H         1 UNK         0.0813 
    118 H118       32.2886   31.4491   -0.5174 H         1 UNK         0.0813 
    119 H119       31.6905   30.8936    1.0494 H         1 UNK         0.0813 
    120 H120       33.8102   31.4804    0.8983 H         1 UNK         0.3038 
    121 H121       35.8963   33.3965    1.6433 H         1 UNK         0.0769 
    122 H122       37.3939   31.4585    1.2617 H         1 UNK         0.0811 
    123 H123       36.3010   31.6540   -0.0964 H         1 UNK         0.0811 
    124 H124       36.0117   30.3838    1.0937 H         1 UNK         0.0811 
    125 H125       34.0863   33.4201    3.6248 H         1 UNK         0.3204 
    126 H126       33.6665   33.2651    5.8028 H         1 UNK         0.0748 
    127 H127       36.6465   32.6158    6.1295 H         1 UNK         0.0771 
    128 H128       35.9580   34.2353    6.0250 H         1 UNK         0.0771 
    129 H129       35.5696   33.2006    7.3892 H         1 UNK         0.0771 
    130 H130       32.6924   31.1747    4.5469 H         1 UNK         0.2980 
    131 H131       33.6099   28.6285    5.5526 H         1 UNK         0.0545 
    132 H132       30.8322   29.8487    8.2149 H         1 UNK         0.3459 
    133 H133       31.5501   30.9699    7.0829 H         1 UNK         0.3459 
    134 H134       31.6226   27.7151    4.2988 H         1 UNK         0.0616 
    135 H135       31.0989   29.3422    3.9697 H         1 UNK         0.0616 
    136 H136       34.3177   27.0799    3.7662 H         1 UNK         0.0634 
    137 H137       34.7552   27.2387    2.0869 H         1 UNK         0.0634 
@<TRIPOS>BOND
     1    1    2 1    
     2    1   72 1    
     3    1   73 1    
     4    1   74 1    
     5    2    3 2    
     6    2    4 am   BACKBONE|DICT|INTERRES
     7    4    5 1    
     8    4   75 1    
     9    5    6 1    
    10    5   35 1    
    11    5   76 1    
    12    6    7 1    
    13    6   77 1    
    14    6   78 1    
    15    7    8 1    
    16    8    9 1    
    17    8   79 1    
    18    8   80 1    
    19    9   10 ar   
    20    9   14 ar   
    21   10   11 ar   
    22   10   81 1    
    23   11   12 ar   
    24   11   71 1    
    25   12   13 ar   
    26   12   82 1    
    27   13   14 ar   
    28   13   15 1    
    29   14   83 1    
    30   15   16 1    
    31   15   84 1    
    32   15   85 1    
    33   16   17 1    
    34   17   18 1    
    35   17   86 1    
    36   17   87 1    
    37   18   19 1    
    38   18   37 1    
    39   18   88 1    
    40   19   20 am   BACKBONE|DICT|INTERRES
    41   19   89 1    
    42   20   21 2    
    43   20   22 1    
    44   22   23 1    
    45   22   24 1    
    46   22   90 1    
    47   23   91 1    
    48   23   92 1    
    49   23   93 1    
    50   24   25 am   BACKBONE|DICT|INTERRES
    51   24   94 1    
    52   25   26 2    
    53   25   27 1    
    54   27   28 1    
    55   27   29 1    
    56   27   95 1    
    57   28   96 1    
    58   28   97 1    
    59   28   98 1    
    60   29   30 am   BACKBONE|DICT|INTERRES
    61   29   99 1    
    62   30   31 2    
    63   30   32 1    
    64   32   33 1    
    65   32   34 1    
    66   32  100 1    
    67   33  101 1    
    68   33  102 1    
    69   33  103 1    
    70   34   35 am   BACKBONE|DICT|INTERRES
    71   34  104 1    
    72   35   36 2    
    73   37   38 2    
    74   37   39 am   BACKBONE|DICT|INTERRES
    75   39   40 1    
    76   39  105 1    
    77   40   41 1    
    78   40   42 1    
    79   40  106 1    
    80   41  107 1    
    81   41  108 1    
    82   41  109 1    
    83   42   43 2    
    84   42   44 am   BACKBONE|DICT|INTERRES
    85   44   45 1    
    86   44  110 1    
    87   45   46 1    
    88   45   47 1    
    89   45  111 1    
    90   46  112 1    
    91   46  113 1    
    92   46  114 1    
    93   47   48 2    
    94   47   49 am   BACKBONE|DICT|INTERRES
    95   49   50 1    
    96   49  115 1    
    97   50   51 1    
    98   50   52 1    
    99   50  116 1    
   100   51  117 1    
   101   51  118 1    
   102   51  119 1    
   103   52   53 2    
   104   52   54 am   BACKBONE|DICT|INTERRES
   105   54   55 1    
   106   54  120 1    
   107   55   56 1    
   108   55   57 1    
   109   55  121 1    
   110   56  122 1    
   111   56  123 1    
   112   56  124 1    
   113   57   58 2    
   114   57   59 am   BACKBONE|DICT|INTERRES
   115   59   60 1    
   116   59  125 1    
   117   60   61 1    
   118   60   62 1    
   119   60  126 1    
   120   61  127 1    
   121   61  128 1    
   122   61  129 1    
   123   62   63 2    
   124   62   64 am   BACKBONE|DICT|INTERRES
   125   64   65 1    
   126   64  130 1    
   127   65   66 1    
   128   65   69 1    
   129   65  131 1    
   130   66   67 am   BACKBONE|DICT|INTERRES
   131   66   68 2    
   132   67  132 1    
   133   67  133 1    
   134   69   70 1    
   135   69  134 1    
   136   69  135 1    
   137   70   71 1    
   138   71  136 1    
   139   71  137 1    
@<TRIPOS>SUBSTRUCTURE
     1 UNK         1 GROUP             0       ****    0 ROOT    
