@<TRIPOS>MOLECULE
3R136
137   139    1
SMALL
USER_CHARGES


@<TRIPOS>ATOM
      1 CA         34.7536   22.0216    0.4159 C.3       0 UNK        -0.1979 
      2 C          33.2338   21.9819    0.3632 C.2       0 UNK         0.4864 
      3 O          32.6711   21.1153   -0.3070 O.2       0 UNK        -0.5359 
      4 N          32.5807   22.9295    1.0504 N.am      1 UNK        -0.4318 
      5 CA         31.1293   23.1705    1.0776 C.3       1 UNK         0.0824 
      6 C6         30.2821   21.9669    1.5868 C.3       12 UNK        -0.0944 
      7 S7         30.8819   21.2185    3.1399 S.3       12 UNK        -0.2672 
      8 C8         29.6121   21.7299    4.3384 C.3       12 UNK         0.0333 
      9 C9         29.9010   23.1085    4.9103 C.ar      12 UNK        -0.0807 
     10 C10        30.9778   23.2783    5.7851 C.ar      12 UNK        -0.0894 
     11 C11        31.2491   24.5274    6.3481 C.ar      12 UNK        -0.0804 
     12 C12        30.4175   25.6092    6.0466 C.ar      12 UNK        -0.0824 
     13 C13        29.3283   25.4501    5.1825 C.ar      12 UNK        -0.0762 
     14 C14        29.0824   24.2004    4.6040 C.ar      12 UNK        -0.0782 
     15 C15        28.4183   26.6310    4.8841 C.3       12 UNK         0.0230 
     16 S16        26.8696   26.5459    5.8444 S.3       12 UNK        -0.2608 
     17 C17        26.2091   28.2583    5.8336 C.3       12 UNK        -0.0989 
     18 CA         26.5562   29.1138    4.5904 C.3       5 UNK         0.0716 
     19 N          26.0639   28.5078    3.3503 N.am      5 UNK        -0.4135 
     20 C          26.4168   28.9169    2.1266 C.2       4 UNK         0.5031 
     21 O          27.2085   29.8393    1.9182 O.2       4 UNK        -0.5229 
     22 CA         25.7693   28.1844    0.9409 C.3       4 UNK         0.0329 
     23 CB         24.4515   28.8608    0.5302 C.3       4 UNK        -0.2001 
     24 N          26.6823   28.1680   -0.2018 N.am      4 UNK        -0.4303 
     25 C          27.7624   27.3819   -0.2744 C.2       3 UNK         0.5044 
     26 O          27.9999   26.4732    0.5262 O.2       3 UNK        -0.5152 
     27 CA         28.7245   27.6621   -1.4373 C.3       3 UNK         0.0319 
     28 CB         29.3889   29.0460   -1.3121 C.3       3 UNK        -0.2001 
     29 N          29.7597   26.6338   -1.4573 N.am      3 UNK        -0.4354 
     30 C          30.2443   26.0417   -2.5540 C.2       2 UNK         0.4964 
     31 O          29.9169   26.3610   -3.6981 O.2       2 UNK        -0.5047 
     32 CA         31.2613   24.8995   -2.3687 C.3       2 UNK         0.0288 
     33 CB         32.6189   25.2459   -3.0038 C.3       2 UNK        -0.2113 
     34 N          31.4695   24.4884   -0.9759 N.am      2 UNK        -0.4145 
     35 C          30.6368   23.6840   -0.2964 C.2       1 UNK         0.5006 
     36 O          29.5474   23.3153   -0.7414 O.2       1 UNK        -0.5103 
     37 C          26.0662   30.5697    4.7314 C.2       5 UNK         0.5055 
     38 O          24.9770   30.9014    4.2575 O.2       5 UNK        -0.5220 
     39 N          26.9185   31.4181    5.3252 N.am      6 UNK        -0.4450 
     40 CA         26.8574   32.8875    5.3897 C.3       6 UNK         0.0367 
     41 CB         25.5406   33.4035    6.0029 C.3       6 UNK        -0.1929 
     42 C          27.1614   33.5694    4.0414 C.2       6 UNK         0.5070 
     43 O          27.9065   34.5495    4.0185 O.2       6 UNK        -0.5237 
     44 N          26.6437   33.0229    2.9345 N.am      7 UNK        -0.4739 
     45 CA         26.9097   33.4462    1.5567 C.3       7 UNK         0.0276 
     46 CB         25.7401   32.9889    0.6672 C.3       7 UNK        -0.1927 
     47 C          28.2730   32.9241    1.0570 C.2       7 UNK         0.5013 
     48 O          28.3306   32.1611    0.0931 O.2       7 UNK        -0.5193 
     49 N          29.3429   33.3362    1.7492 N.am      8 UNK        -0.4253 
     50 CA         30.7617   32.9988    1.5630 C.3       8 UNK         0.0242 
     51 CB         31.2324   33.1967    0.1071 C.3       8 UNK        -0.2000 
     52 C          31.1818   31.6209    2.1065 C.2       8 UNK         0.4948 
     53 O          32.3721   31.4495    2.3766 O.2       8 UNK        -0.5275 
     54 N          30.2397   30.6827    2.2972 N.am      9 UNK        -0.4246 
     55 CA         30.3976   29.3457    2.8948 C.3       9 UNK         0.0261 
     56 CB         30.8818   29.4322    4.3585 C.3       9 UNK        -0.1959 
     57 C          31.2615   28.3639    2.0856 C.2       9 UNK         0.5033 
     58 O          30.7804   27.2859    1.7384 O.2       9 UNK        -0.5390 
     59 N          32.5185   28.7448    1.8217 N.am      10 UNK        -0.4215 
     60 CA         33.5590   27.9766    1.1294 C.3       10 UNK         0.0240 
     61 CB         33.2687   27.9361   -0.3820 C.3       10 UNK        -0.1982 
     62 C          33.7660   26.5784    1.7465 C.2       10 UNK         0.4970 
     63 O          33.6854   25.5677    1.0443 O.2       10 UNK        -0.4916 
     64 N          33.9905   26.5612    3.0672 N.am      11 UNK        -0.4279 
     65 CA         34.1964   25.3597    3.8913 C.3       11 UNK         0.1003 
     66 C          35.4348   24.5070    3.4806 C.2       11 UNK         0.5709 
     67 N          36.4963   25.1079    2.9552 N.am      11 UNK        -0.7358 
     68 O          35.4193   23.2861    3.6091 O.2       11 UNK        -0.4999 
     69 C69        34.2298   25.7491    5.3945 C.3       12 UNK        -0.0954 
     70 S70        34.0229   24.3387    6.5348 S.3       12 UNK        -0.2268 
     71 C71        32.4149   24.6940    7.3132 C.3       12 UNK         0.0203 
     72 H72        35.1730   21.8194   -0.5693 H         1 UNK         0.0888 
     73 H73        35.1199   22.9954    0.7413 H         1 UNK         0.0888 
     74 H74        35.1249   21.2674    1.1091 H         1 UNK         0.0888 
     75 H75        33.1293   23.6568    1.4948 H         1 UNK         0.3017 
     76 H76        30.9775   23.9960    1.7758 H         1 UNK         0.0873 
     77 H77        29.2429   22.2739    1.7154 H         1 UNK         0.0745 
     78 H78        30.2617   21.1732    0.8379 H         1 UNK         0.0745 
     79 H79        29.5988   21.0075    5.1559 H         1 UNK         0.0705 
     80 H80        28.6212   21.6858    3.8839 H         1 UNK         0.0705 
     81 H81        31.6099   22.4342    6.0264 H         1 UNK         0.1334 
     82 H82        30.6100   26.5731    6.4974 H         1 UNK         0.1417 
     83 H83        28.2405   24.0767    3.9362 H         1 UNK         0.1562 
     84 H84        28.2017   26.6748    3.8153 H         1 UNK         0.0748 
     85 H85        28.9400   27.5490    5.1438 H         1 UNK         0.0748 
     86 H86        26.5810   28.7457    6.7372 H         1 UNK         0.0940 
     87 H87        25.1259   28.1991    5.9577 H         1 UNK         0.0940 
     88 H88        27.6393   29.1802    4.5020 H         1 UNK         0.0703 
     89 H89        25.3865   27.7667    3.4513 H         1 UNK         0.3081 
     90 H90        25.5543   27.1552    1.2374 H         1 UNK         0.0719 
     91 H91        24.6103   29.8794    0.1774 H         1 UNK         0.0809 
     92 H92        23.9547   28.3060   -0.2659 H         1 UNK         0.0809 
     93 H93        23.7577   28.9118    1.3705 H         1 UNK         0.0809 
     94 H94        26.5834   28.9203   -0.8675 H         1 UNK         0.2990 
     95 H95        28.1406   27.6241   -2.3594 H         1 UNK         0.0690 
     96 H96        30.0964   29.2215   -2.1226 H         1 UNK         0.0788 
     97 H97        29.9281   29.1512   -0.3714 H         1 UNK         0.0788 
     98 H98        28.6499   29.8467   -1.3516 H         1 UNK         0.0788 
     99 H99        30.0178   26.2833   -0.5419 H         1 UNK         0.2993 
    100 H100       30.8591   24.0422   -2.9135 H         1 UNK         0.0949 
    101 H101       33.3230   24.4185   -2.9124 H         1 UNK         0.0767 
    102 H102       32.5083   25.4574   -4.0682 H         1 UNK         0.0767 
    103 H103       33.0712   26.1240   -2.5476 H         1 UNK         0.0767 
    104 H104       32.3309   24.7801   -0.5282 H         1 UNK         0.3013 
    105 H105       27.7831   31.0313    5.6781 H         1 UNK         0.3121 
    106 H106       27.6607   33.1788    6.0687 H         1 UNK         0.0774 
    107 H107       25.5942   34.4785    6.1792 H         1 UNK         0.0815 
    108 H108       24.6848   33.2305    5.3502 H         1 UNK         0.0815 
    109 H109       25.3349   32.9275    6.9615 H         1 UNK         0.0815 
    110 H110       26.0597   32.2015    3.0499 H         1 UNK         0.2987 
    111 H111       26.9476   34.5373    1.5221 H         1 UNK         0.0949 
    112 H112       25.6501   31.9031    0.6594 H         1 UNK         0.0806 
    113 H113       24.7921   33.4032    1.0105 H         1 UNK         0.0806 
    114 H114       25.8822   33.3131   -0.3646 H         1 UNK         0.0806 
    115 H115       29.1442   33.9278    2.5515 H         1 UNK         0.3010 
    116 H116       31.2998   33.7280    2.1707 H         1 UNK         0.0829 
    117 H117       30.9573   34.1811   -0.2711 H         1 UNK         0.0813 
    118 H118       32.3179   33.1148    0.0382 H         1 UNK         0.0813 
    119 H119       30.8142   32.4467   -0.5648 H         1 UNK         0.0813 
    120 H120       29.3014   30.8874    1.9690 H         1 UNK         0.3038 
    121 H121       29.4007   28.9081    2.9114 H         1 UNK         0.0769 
    122 H122       31.0377   28.4390    4.7801 H         1 UNK         0.0811 
    123 H123       30.1543   29.9456    4.9862 H         1 UNK         0.0811 
    124 H124       31.8304   29.9603    4.4532 H         1 UNK         0.0811 
    125 H125       32.7675   29.6892    2.1155 H         1 UNK         0.3204 
    126 H126       34.4947   28.5194    1.2706 H         1 UNK         0.0748 
    127 H127       34.0832   27.4485   -0.9182 H         1 UNK         0.0771 
    128 H128       32.3503   27.3920   -0.5983 H         1 UNK         0.0771 
    129 H129       33.1646   28.9402   -0.7932 H         1 UNK         0.0771 
    130 H130       34.0329   27.4432    3.5547 H         1 UNK         0.2980 
    131 H131       33.3171   24.7315    3.7332 H         1 UNK         0.0545 
    132 H132       36.5158   26.1077    2.8368 H         1 UNK         0.3459 
    133 H133       37.2906   24.5520    2.6809 H         1 UNK         0.3459 
    134 H134       35.1663   26.2538    5.6386 H         1 UNK         0.0616 
    135 H135       33.4414   26.4733    5.6058 H         1 UNK         0.0616 
    136 H136       32.2760   24.0100    8.1514 H         1 UNK         0.0634 
    137 H137       32.4363   25.6985    7.7388 H         1 UNK         0.0634 
@<TRIPOS>BOND
     1    1    2 1    
     2    1   72 1    
     3    1   73 1    
     4    1   74 1    
     5    2    3 2    
     6    2    4 am   BACKBONE|DICT|INTERRES
     7    4    5 1    
     8    4   75 1    
     9    5    6 1    
    10    5   35 1    
    11    5   76 1    
    12    6    7 1    
    13    6   77 1    
    14    6   78 1    
    15    7    8 1    
    16    8    9 1    
    17    8   79 1    
    18    8   80 1    
    19    9   10 ar   
    20    9   14 ar   
    21   10   11 ar   
    22   10   81 1    
    23   11   12 ar   
    24   11   71 1    
    25   12   13 ar   
    26   12   82 1    
    27   13   14 ar   
    28   13   15 1    
    29   14   83 1    
    30   15   16 1    
    31   15   84 1    
    32   15   85 1    
    33   16   17 1    
    34   17   18 1    
    35   17   86 1    
    36   17   87 1    
    37   18   19 1    
    38   18   37 1    
    39   18   88 1    
    40   19   20 am   BACKBONE|DICT|INTERRES
    41   19   89 1    
    42   20   21 2    
    43   20   22 1    
    44   22   23 1    
    45   22   24 1    
    46   22   90 1    
    47   23   91 1    
    48   23   92 1    
    49   23   93 1    
    50   24   25 am   BACKBONE|DICT|INTERRES
    51   24   94 1    
    52   25   26 2    
    53   25   27 1    
    54   27   28 1    
    55   27   29 1    
    56   27   95 1    
    57   28   96 1    
    58   28   97 1    
    59   28   98 1    
    60   29   30 am   BACKBONE|DICT|INTERRES
    61   29   99 1    
    62   30   31 2    
    63   30   32 1    
    64   32   33 1    
    65   32   34 1    
    66   32  100 1    
    67   33  101 1    
    68   33  102 1    
    69   33  103 1    
    70   34   35 am   BACKBONE|DICT|INTERRES
    71   34  104 1    
    72   35   36 2    
    73   37   38 2    
    74   37   39 am   BACKBONE|DICT|INTERRES
    75   39   40 1    
    76   39  105 1    
    77   40   41 1    
    78   40   42 1    
    79   40  106 1    
    80   41  107 1    
    81   41  108 1    
    82   41  109 1    
    83   42   43 2    
    84   42   44 am   BACKBONE|DICT|INTERRES
    85   44   45 1    
    86   44  110 1    
    87   45   46 1    
    88   45   47 1    
    89   45  111 1    
    90   46  112 1    
    91   46  113 1    
    92   46  114 1    
    93   47   48 2    
    94   47   49 am   BACKBONE|DICT|INTERRES
    95   49   50 1    
    96   49  115 1    
    97   50   51 1    
    98   50   52 1    
    99   50  116 1    
   100   51  117 1    
   101   51  118 1    
   102   51  119 1    
   103   52   53 2    
   104   52   54 am   BACKBONE|DICT|INTERRES
   105   54   55 1    
   106   54  120 1    
   107   55   56 1    
   108   55   57 1    
   109   55  121 1    
   110   56  122 1    
   111   56  123 1    
   112   56  124 1    
   113   57   58 2    
   114   57   59 am   BACKBONE|DICT|INTERRES
   115   59   60 1    
   116   59  125 1    
   117   60   61 1    
   118   60   62 1    
   119   60  126 1    
   120   61  127 1    
   121   61  128 1    
   122   61  129 1    
   123   62   63 2    
   124   62   64 am   BACKBONE|DICT|INTERRES
   125   64   65 1    
   126   64  130 1    
   127   65   66 1    
   128   65   69 1    
   129   65  131 1    
   130   66   67 am   BACKBONE|DICT|INTERRES
   131   66   68 2    
   132   67  132 1    
   133   67  133 1    
   134   69   70 1    
   135   69  134 1    
   136   69  135 1    
   137   70   71 1    
   138   71  136 1    
   139   71  137 1    
@<TRIPOS>SUBSTRUCTURE
     1 UNK         1 GROUP             0       ****    0 ROOT    
