@<TRIPOS>MOLECULE
3R136
137   139    1
SMALL
USER_CHARGES


@<TRIPOS>ATOM
      1 CA         27.3009   20.4635    2.6904 C.3       0 UNK        -0.1979 
      2 C          27.4298   21.9049    3.1607 C.2       0 UNK         0.4864 
      3 O          26.8405   22.2649    4.1804 O.2       0 UNK        -0.5359 
      4 N          28.1903   22.7233    2.4173 N.am      1 UNK        -0.4318 
      5 CA         28.4679   24.1463    2.6826 C.3       1 UNK         0.0824 
      6 C6         29.2852   24.3943    3.9852 C.3       12 UNK        -0.0944 
      7 S7         30.7928   23.3645    4.1015 S.3       12 UNK        -0.2672 
      8 C8         32.1351   24.6046    4.0680 C.3       12 UNK         0.0333 
      9 C9         32.1901   25.4602    2.8031 C.ar      12 UNK        -0.0807 
     10 C10        32.6749   26.7678    2.8898 C.ar      12 UNK        -0.0894 
     11 C11        32.7229   27.5901    1.7611 C.ar      12 UNK        -0.0804 
     12 C12        32.2721   27.0994    0.5320 C.ar      12 UNK        -0.0824 
     13 C13        31.7925   25.7908    0.4269 C.ar      12 UNK        -0.0762 
     14 C14        31.7799   24.9705    1.5577 C.ar      12 UNK        -0.0782 
     15 C15        31.2745   25.2534   -0.8977 C.3       12 UNK         0.0230 
     16 S16        29.4673   25.4412   -1.0204 S.3       12 UNK        -0.2608 
     17 C17        29.3414   27.0891   -1.8010 C.3       12 UNK        -0.0989 
     18 CA         27.8914   27.6462   -1.9011 C.3       5 UNK         0.0716 
     19 N          26.9597   26.7140   -2.5237 N.am      5 UNK        -0.4135 
     20 C          26.9123   26.3323   -3.8009 C.2       4 UNK         0.5031 
     21 O          27.6698   26.7586   -4.6738 O.2       4 UNK        -0.5229 
     22 CA         25.8448   25.2832   -4.1684 C.3       4 UNK         0.0329 
     23 CB         26.5056   23.9199   -4.4311 C.3       4 UNK        -0.2001 
     24 N          24.8205   25.1164   -3.1311 N.am      4 UNK        -0.4303 
     25 C          23.7846   25.9394   -2.9300 C.2       3 UNK         0.5044 
     26 O          23.5468   26.9221   -3.6327 O.2       3 UNK        -0.5152 
     27 CA         22.8631   25.6226   -1.7381 C.3       3 UNK         0.0319 
     28 CB         22.1273   24.2798   -1.9250 C.3       3 UNK        -0.2001 
     29 N          23.5271   25.7022   -0.4280 N.am      3 UNK        -0.4354 
     30 C          24.5025   24.9273    0.0674 C.2       2 UNK         0.4964 
     31 O          25.0203   23.9856   -0.5413 O.2       2 UNK        -0.5047 
     32 CA         24.9644   25.2525    1.4942 C.3       2 UNK         0.0288 
     33 CB         23.9554   24.7310    2.5344 C.3       2 UNK        -0.2113 
     34 N          26.2635   24.6285    1.7168 N.am      2 UNK        -0.4145 
     35 C          27.1923   25.0194    2.5986 C.2       1 UNK         0.5006 
     36 O          27.0674   26.0086    3.3244 O.2       1 UNK        -0.5103 
     37 C          27.2739   28.0634   -0.5519 C.2       5 UNK         0.5055 
     38 O          26.1134   27.7365   -0.2881 O.2       5 UNK        -0.5220 
     39 N          28.0355   28.7772    0.2790 N.am      6 UNK        -0.4450 
     40 CA         27.6688   29.1438    1.6416 C.3       6 UNK         0.0367 
     41 CB         26.9410   30.4991    1.6474 C.3       6 UNK        -0.1929 
     42 C          28.9604   29.2084    2.4555 C.2       6 UNK         0.5070 
     43 O          30.0062   29.5446    1.8952 O.2       6 UNK        -0.5237 
     44 N          28.8704   28.9231    3.7590 N.am      7 UNK        -0.4739 
     45 CA         29.9903   28.8743    4.7058 C.3       7 UNK         0.0276 
     46 CB         29.5562   28.0594    5.9396 C.3       7 UNK        -0.1927 
     47 C          30.5492   30.2624    5.0897 C.2       7 UNK         0.5013 
     48 O          30.7194   30.5436    6.2781 O.2       7 UNK        -0.5193 
     49 N          30.8404   31.1022    4.0874 N.am      8 UNK        -0.4253 
     50 CA         31.4123   32.4473    4.2055 C.3       8 UNK         0.0242 
     51 CB         31.5379   33.0585    2.7996 C.3       8 UNK        -0.2000 
     52 C          32.7711   32.4151    4.9246 C.2       8 UNK         0.4948 
     53 O          33.7603   31.9822    4.3303 O.2       8 UNK        -0.5275 
     54 N          32.7670   32.7747    6.2187 N.am      9 UNK        -0.4246 
     55 CA         33.8733   32.6338    7.1809 C.3       9 UNK         0.0261 
     56 CB         34.9953   33.6448    6.8624 C.3       9 UNK        -0.1959 
     57 C          34.4004   31.1845    7.2907 C.2       9 UNK         0.5033 
     58 O          35.5933   30.9798    7.5280 O.2       9 UNK        -0.5390 
     59 N          33.5147   30.2066    7.0325 N.am      10 UNK        -0.4215 
     60 CA         33.7863   28.7757    6.8380 C.3       10 UNK         0.0240 
     61 CB         34.1657   28.1155    8.1797 C.3       10 UNK        -0.1982 
     62 C          34.8129   28.4674    5.7228 C.2       10 UNK         0.4970 
     63 O          35.3605   27.3643    5.7066 O.2       10 UNK        -0.4916 
     64 N          35.0663   29.4322    4.8230 N.am      11 UNK        -0.4279 
     65 CA         36.1572   29.4329    3.8357 C.3       11 UNK         0.1003 
     66 C          37.5845   29.3636    4.4683 C.2       11 UNK         0.5709 
     67 N          37.7685   29.7770    5.7188 N.am      11 UNK        -0.7358 
     68 O          38.5491   28.9712    3.8158 O.2       11 UNK        -0.4999 
     69 C69        35.9033   28.4305    2.6669 C.3       12 UNK        -0.0954 
     70 S70        34.9471   29.1946    1.3132 S.3       12 UNK        -0.2268 
     71 C71        33.2264   29.0207    1.8749 C.3       12 UNK         0.0203 
     72 H72        27.8692   20.2780    1.7791 H         1 UNK         0.0888 
     73 H73        27.6657   19.7846    3.4606 H         1 UNK         0.0888 
     74 H74        26.2560   20.2255    2.4927 H         1 UNK         0.0888 
     75 H75        28.6452   22.3475    1.5969 H         1 UNK         0.3017 
     76 H76        29.0811   24.4844    1.8485 H         1 UNK         0.0873 
     77 H77        29.5735   25.4445    4.0466 H         1 UNK         0.0745 
     78 H78        28.6723   24.1961    4.8660 H         1 UNK         0.0745 
     79 H79        32.0292   25.2417    4.9478 H         1 UNK         0.0705 
     80 H80        33.0888   24.0865    4.1753 H         1 UNK         0.0705 
     81 H81        33.0129   27.1496    3.8420 H         1 UNK         0.1334 
     82 H82        32.2931   27.7397   -0.3389 H         1 UNK         0.1417 
     83 H83        31.4237   23.9541    1.4664 H         1 UNK         0.1562 
     84 H84        31.5234   24.1948   -0.9864 H         1 UNK         0.0748 
     85 H85        31.7647   25.7496   -1.7368 H         1 UNK         0.0748 
     86 H86        29.7579   27.0065   -2.8062 H         1 UNK         0.0940 
     87 H87        29.9964   27.7879   -1.2801 H         1 UNK         0.0940 
     88 H88        27.9124   28.5489   -2.5149 H         1 UNK         0.0703 
     89 H89        26.2580   26.3690   -1.8816 H         1 UNK         0.3081 
     90 H90        25.3616   25.6146   -5.0900 H         1 UNK         0.0719 
     91 H91        27.0084   23.5384   -3.5412 H         1 UNK         0.0809 
     92 H92        25.7727   23.1777   -4.7480 H         1 UNK         0.0809 
     93 H93        27.2536   23.9935   -5.2219 H         1 UNK         0.0809 
     94 H94        24.9630   24.3760   -2.4493 H         1 UNK         0.2990 
     95 H95        22.1001   26.4028   -1.7238 H         1 UNK         0.0690 
     96 H96        21.4015   24.1146   -1.1287 H         1 UNK         0.0788 
     97 H97        22.8092   23.4293   -1.9346 H         1 UNK         0.0788 
     98 H98        21.5804   24.2653   -2.8687 H         1 UNK         0.0788 
     99 H99        23.2141   26.4698    0.1508 H         1 UNK         0.2993 
    100 H100       25.0627   26.3350    1.5949 H         1 UNK         0.0949 
    101 H101       24.2748   24.9679    3.5495 H         1 UNK         0.0767 
    102 H102       22.9721   25.1810    2.3926 H         1 UNK         0.0767 
    103 H103       23.8345   23.6489    2.4678 H         1 UNK         0.0767 
    104 H104       26.4508   23.8400    1.1101 H         1 UNK         0.3013 
    105 H105       28.9981   28.9907    0.0474 H         1 UNK         0.3121 
    106 H106       27.0210   28.3767    2.0709 H         1 UNK         0.0774 
    107 H107       26.6694   30.7929    2.6620 H         1 UNK         0.0815 
    108 H108       27.5640   31.2922    1.2320 H         1 UNK         0.0815 
    109 H109       26.0205   30.4561    1.0651 H         1 UNK         0.0815 
    110 H110       27.9650   28.6710    4.1308 H         1 UNK         0.2987 
    111 H111       30.8070   28.3343    4.2255 H         1 UNK         0.0949 
    112 H112       28.7658   28.5650    6.4958 H         1 UNK         0.0806 
    113 H113       29.1859   27.0735    5.6616 H         1 UNK         0.0806 
    114 H114       30.3897   27.9064    6.6261 H         1 UNK         0.0806 
    115 H115       30.6757   30.7546    3.1453 H         1 UNK         0.3010 
    116 H116       30.7181   33.0603    4.7838 H         1 UNK         0.0829 
    117 H117       30.5647   33.1440    2.3157 H         1 UNK         0.0813 
    118 H118       31.9671   34.0602    2.8460 H         1 UNK         0.0813 
    119 H119       32.1802   32.4576    2.1538 H         1 UNK         0.0813 
    120 H120       31.8847   33.0645    6.6197 H         1 UNK         0.3038 
    121 H121       33.4665   32.8834    8.1619 H         1 UNK         0.0769 
    122 H122       35.4895   33.4152    5.9177 H         1 UNK         0.0811 
    123 H123       35.7610   33.6391    7.6392 H         1 UNK         0.0811 
    124 H124       34.6076   34.6615    6.7997 H         1 UNK         0.0811 
    125 H125       32.5519   30.4855    6.8521 H         1 UNK         0.3204 
    126 H126       32.8470   28.3327    6.5060 H         1 UNK         0.0748 
    127 H127       34.2313   27.0312    8.0816 H         1 UNK         0.0771 
    128 H128       35.1312   28.4684    8.5438 H         1 UNK         0.0771 
    129 H129       33.4211   28.3236    8.9481 H         1 UNK         0.0771 
    130 H130       34.5607   30.3115    4.8811 H         1 UNK         0.2980 
    131 H131       36.1429   30.4386    3.4141 H         1 UNK         0.0545 
    132 H132       36.9948   30.1307    6.2714 H         1 UNK         0.3459 
    133 H133       38.6935   29.7426    6.1160 H         1 UNK         0.3459 
    134 H134       36.8362   28.0977    2.2110 H         1 UNK         0.0616 
    135 H135       35.4129   27.5194    3.0087 H         1 UNK         0.0616 
    136 H136       33.1269   29.3904    2.8955 H         1 UNK         0.0634 
    137 H137       32.6026   29.6718    1.2615 H         1 UNK         0.0634 
@<TRIPOS>BOND
     1    1    2 1    
     2    1   72 1    
     3    1   73 1    
     4    1   74 1    
     5    2    3 2    
     6    2    4 am   BACKBONE|DICT|INTERRES
     7    4    5 1    
     8    4   75 1    
     9    5    6 1    
    10    5   35 1    
    11    5   76 1    
    12    6    7 1    
    13    6   77 1    
    14    6   78 1    
    15    7    8 1    
    16    8    9 1    
    17    8   79 1    
    18    8   80 1    
    19    9   10 ar   
    20    9   14 ar   
    21   10   11 ar   
    22   10   81 1    
    23   11   12 ar   
    24   11   71 1    
    25   12   13 ar   
    26   12   82 1    
    27   13   14 ar   
    28   13   15 1    
    29   14   83 1    
    30   15   16 1    
    31   15   84 1    
    32   15   85 1    
    33   16   17 1    
    34   17   18 1    
    35   17   86 1    
    36   17   87 1    
    37   18   19 1    
    38   18   37 1    
    39   18   88 1    
    40   19   20 am   BACKBONE|DICT|INTERRES
    41   19   89 1    
    42   20   21 2    
    43   20   22 1    
    44   22   23 1    
    45   22   24 1    
    46   22   90 1    
    47   23   91 1    
    48   23   92 1    
    49   23   93 1    
    50   24   25 am   BACKBONE|DICT|INTERRES
    51   24   94 1    
    52   25   26 2    
    53   25   27 1    
    54   27   28 1    
    55   27   29 1    
    56   27   95 1    
    57   28   96 1    
    58   28   97 1    
    59   28   98 1    
    60   29   30 am   BACKBONE|DICT|INTERRES
    61   29   99 1    
    62   30   31 2    
    63   30   32 1    
    64   32   33 1    
    65   32   34 1    
    66   32  100 1    
    67   33  101 1    
    68   33  102 1    
    69   33  103 1    
    70   34   35 am   BACKBONE|DICT|INTERRES
    71   34  104 1    
    72   35   36 2    
    73   37   38 2    
    74   37   39 am   BACKBONE|DICT|INTERRES
    75   39   40 1    
    76   39  105 1    
    77   40   41 1    
    78   40   42 1    
    79   40  106 1    
    80   41  107 1    
    81   41  108 1    
    82   41  109 1    
    83   42   43 2    
    84   42   44 am   BACKBONE|DICT|INTERRES
    85   44   45 1    
    86   44  110 1    
    87   45   46 1    
    88   45   47 1    
    89   45  111 1    
    90   46  112 1    
    91   46  113 1    
    92   46  114 1    
    93   47   48 2    
    94   47   49 am   BACKBONE|DICT|INTERRES
    95   49   50 1    
    96   49  115 1    
    97   50   51 1    
    98   50   52 1    
    99   50  116 1    
   100   51  117 1    
   101   51  118 1    
   102   51  119 1    
   103   52   53 2    
   104   52   54 am   BACKBONE|DICT|INTERRES
   105   54   55 1    
   106   54  120 1    
   107   55   56 1    
   108   55   57 1    
   109   55  121 1    
   110   56  122 1    
   111   56  123 1    
   112   56  124 1    
   113   57   58 2    
   114   57   59 am   BACKBONE|DICT|INTERRES
   115   59   60 1    
   116   59  125 1    
   117   60   61 1    
   118   60   62 1    
   119   60  126 1    
   120   61  127 1    
   121   61  128 1    
   122   61  129 1    
   123   62   63 2    
   124   62   64 am   BACKBONE|DICT|INTERRES
   125   64   65 1    
   126   64  130 1    
   127   65   66 1    
   128   65   69 1    
   129   65  131 1    
   130   66   67 am   BACKBONE|DICT|INTERRES
   131   66   68 2    
   132   67  132 1    
   133   67  133 1    
   134   69   70 1    
   135   69  134 1    
   136   69  135 1    
   137   70   71 1    
   138   71  136 1    
   139   71  137 1    
@<TRIPOS>SUBSTRUCTURE
     1 UNK         1 GROUP             0       ****    0 ROOT    
