@<TRIPOS>MOLECULE
3R136
137   139    1
SMALL
USER_CHARGES


@<TRIPOS>ATOM
      1 CA         32.3141   27.7973   -2.2133 C.3       0 UNK        -0.1979 
      2 C          31.4392   26.8227   -1.4410 C.2       0 UNK         0.4864 
      3 O          30.4074   27.2177   -0.9030 O.2       0 UNK        -0.5359 
      4 N          31.8304   25.5446   -1.3800 N.am      1 UNK        -0.4318 
      5 CA         31.1350   24.4776   -0.6477 C.3       1 UNK         0.0824 
      6 C6         32.1083   23.3281   -0.2797 C.3       12 UNK        -0.0944 
      7 S7         33.4224   23.8775    0.8636 S.3       12 UNK        -0.2672 
      8 C8         33.1120   22.8461    2.3329 C.3       12 UNK         0.0333 
      9 C9         31.9937   23.3954    3.2096 C.ar      12 UNK        -0.0807 
     10 C10        32.2966   24.2223    4.2951 C.ar      12 UNK        -0.0894 
     11 C11        31.2858   24.6831    5.1449 C.ar      12 UNK        -0.0804 
     12 C12        29.9567   24.3283    4.8905 C.ar      12 UNK        -0.0824 
     13 C13        29.6397   23.5044    3.8046 C.ar      12 UNK        -0.0762 
     14 C14        30.6633   23.0377    2.9730 C.ar      12 UNK        -0.0782 
     15 C15        28.1981   23.0849    3.5373 C.3       12 UNK         0.0230 
     16 S16        27.0893   24.4833    3.1649 S.3       12 UNK        -0.2608 
     17 C17        27.9389   25.3098    1.7716 C.3       12 UNK        -0.0989 
     18 CA         27.7993   26.8511    1.7799 C.3       5 UNK         0.0716 
     19 N          26.4066   27.2696    1.6018 N.am      5 UNK        -0.4135 
     20 C          25.9603   28.5266    1.4893 C.2       4 UNK         0.5031 
     21 O          26.6589   29.5227    1.6875 O.2       4 UNK        -0.5229 
     22 CA         24.4940   28.6835    1.0399 C.3       4 UNK         0.0329 
     23 CB         24.0282   30.1514    1.0571 C.3       4 UNK        -0.2001 
     24 N          24.3112   28.1388   -0.3093 N.am      4 UNK        -0.4303 
     25 C          24.2494   26.8348   -0.6132 C.2       3 UNK         0.5044 
     26 O          24.2043   25.9443    0.2390 O.2       3 UNK        -0.5152 
     27 CA         24.3029   26.4357   -2.1016 C.3       3 UNK         0.0319 
     28 CB         24.3172   27.6298   -3.0847 C.3       3 UNK        -0.2001 
     29 N          25.4349   25.5345   -2.3638 N.am      3 UNK        -0.4354 
     30 C          26.7335   25.7895   -2.1377 C.2       2 UNK         0.4964 
     31 O          27.1671   26.8647   -1.7182 O.2       2 UNK        -0.5047 
     32 CA         27.7143   24.6525   -2.4511 C.3       2 UNK         0.0288 
     33 CB         27.9776   24.5530   -3.9657 C.3       2 UNK        -0.2113 
     34 N          28.9695   24.8964   -1.7441 N.am      2 UNK        -0.4145 
     35 C          29.8836   23.9778   -1.4124 C.2       1 UNK         0.5006 
     36 O          29.7683   22.7832   -1.6954 O.2       1 UNK        -0.5103 
     37 C          28.5031   27.5041    2.9862 C.2       5 UNK         0.5055 
     38 O          29.6580   27.9025    2.8635 O.2       5 UNK        -0.5220 
     39 N          27.7741   27.6616    4.1002 N.am      6 UNK        -0.4450 
     40 CA         28.2457   28.2992    5.3314 C.3       6 UNK         0.0367 
     41 CB         27.2105   28.0656    6.4431 C.3       6 UNK        -0.1929 
     42 C          28.5608   29.8017    5.1893 C.2       6 UNK         0.5070 
     43 O          29.2957   30.3352    6.0207 O.2       6 UNK        -0.5237 
     44 N          27.9960   30.4590    4.1673 N.am      7 UNK        -0.4739 
     45 CA         28.2785   31.8513    3.8183 C.3       7 UNK         0.0276 
     46 CB         26.9571   32.5700    3.4973 C.3       7 UNK        -0.1927 
     47 C          29.2425   31.9433    2.6251 C.2       7 UNK         0.5013 
     48 O          30.0788   32.8471    2.5993 O.2       7 UNK        -0.5193 
     49 N          29.0900   31.0384    1.6480 N.am      8 UNK        -0.4253 
     50 CA         29.8686   31.0117    0.4102 C.3       8 UNK         0.0242 
     51 CB         29.1146   30.1906   -0.6467 C.3       8 UNK        -0.2000 
     52 C          31.3152   30.5167    0.5929 C.2       8 UNK         0.4948 
     53 O          32.2149   31.0855   -0.0290 O.2       8 UNK        -0.5275 
     54 N          31.5311   29.4923    1.4295 N.am      9 UNK        -0.4246 
     55 CA         32.8610   29.0075    1.8081 C.3       9 UNK         0.0261 
     56 CB         32.7877   27.5045    2.1325 C.3       9 UNK        -0.1959 
     57 C          33.3982   29.7973    3.0132 C.2       9 UNK         0.5033 
     58 O          32.6284   30.4419    3.7297 O.2       9 UNK        -0.5390 
     59 N          34.7199   29.7243    3.2238 N.am      10 UNK        -0.4215 
     60 CA         35.4102   30.3706    4.3454 C.3       10 UNK         0.0240 
     61 CB         36.9282   30.3522    4.0996 C.3       10 UNK        -0.1982 
     62 C          35.0711   29.7364    5.7062 C.2       10 UNK         0.4970 
     63 O          34.8965   30.4675    6.6817 O.2       10 UNK        -0.4916 
     64 N          34.9877   28.3978    5.7361 N.am      11 UNK        -0.4279 
     65 CA         34.6166   27.5703    6.9005 C.3       11 UNK         0.1003 
     66 C          35.5819   27.6721    8.1229 C.2       11 UNK         0.5709 
     67 N          36.8226   28.1113    7.9461 N.am      11 UNK        -0.7358 
     68 O          35.2211   27.3142    9.2420 O.2       11 UNK        -0.4999 
     69 C69        33.1158   27.7243    7.2874 C.3       12 UNK        -0.0954 
     70 S70        32.0125   27.2420    5.9175 S.3       12 UNK        -0.2268 
     71 C71        31.6490   25.5182    6.3635 C.3       12 UNK         0.0203 
     72 H72        32.6778   28.5793   -1.5474 H         1 UNK         0.0888 
     73 H73        33.1759   27.3044   -2.6626 H         1 UNK         0.0888 
     74 H74        31.7372   28.2686   -3.0084 H         1 UNK         0.0888 
     75 H75        32.6799   25.2636   -1.8483 H         1 UNK         0.3017 
     76 H76        30.7699   24.8992    0.2905 H         1 UNK         0.0873 
     77 H77        31.5724   22.4917    0.1696 H         1 UNK         0.0745 
     78 H78        32.5804   22.9257   -1.1779 H         1 UNK         0.0745 
     79 H79        32.8914   21.8214    2.0301 H         1 UNK         0.0705 
     80 H80        34.0355   22.7899    2.9113 H         1 UNK         0.0705 
     81 H81        33.3246   24.4936    4.4933 H         1 UNK         0.1334 
     82 H82        29.1688   24.6816    5.5419 H         1 UNK         0.1417 
     83 H83        30.4239   22.3818    2.1481 H         1 UNK         0.1562 
     84 H84        27.8152   22.5584    4.4126 H         1 UNK         0.0748 
     85 H85        28.1470   22.3750    2.7102 H         1 UNK         0.0748 
     86 H86        27.5334   24.9061    0.8430 H         1 UNK         0.0940 
     87 H87        28.9958   25.0481    1.7663 H         1 UNK         0.0940 
     88 H88        28.3249   27.2154    0.8954 H         1 UNK         0.0703 
     89 H89        25.7454   26.5289    1.3917 H         1 UNK         0.3081 
     90 H90        23.8701   28.1242    1.7404 H         1 UNK         0.0719 
     91 H91        24.6114   30.7697    0.3733 H         1 UNK         0.0809 
     92 H92        22.9784   30.2383    0.7767 H         1 UNK         0.0809 
     93 H93        24.1332   30.5817    2.0541 H         1 UNK         0.0809 
     94 H94        24.3942   28.7958   -1.0715 H         1 UNK         0.2990 
     95 H95        23.3958   25.8609   -2.2935 H         1 UNK         0.0690 
     96 H96        24.3110   27.2814   -4.1176 H         1 UNK         0.0788 
     97 H97        25.1980   28.2610   -2.9598 H         1 UNK         0.0788 
     98 H98        23.4340   28.2575   -2.9585 H         1 UNK         0.0788 
     99 H99        25.1820   24.6124   -2.6914 H         1 UNK         0.2993 
    100 H100       27.2806   23.7173   -2.0898 H         1 UNK         0.0949 
    101 H101       28.6501   23.7275   -4.1999 H         1 UNK         0.0767 
    102 H102       27.0527   24.3804   -4.5175 H         1 UNK         0.0767 
    103 H103       28.4249   25.4689   -4.3544 H         1 UNK         0.0767 
    104 H104       29.1292   25.8665   -1.4713 H         1 UNK         0.3013 
    105 H105       26.8311   27.3007    4.1023 H         1 UNK         0.3121 
    106 H106       29.1725   27.8021    5.6210 H         1 UNK         0.0774 
    107 H107       26.2501   28.5232    6.2025 H         1 UNK         0.0815 
    108 H108       27.5491   28.4957    7.3868 H         1 UNK         0.0815 
    109 H109       27.0453   27.0019    6.6156 H         1 UNK         0.0815 
    110 H110       27.4206   29.9405    3.5122 H         1 UNK         0.2987 
    111 H111       28.7461   32.3667    4.6603 H         1 UNK         0.0949 
    112 H112       26.4389   32.1115    2.6540 H         1 UNK         0.0806 
    113 H113       26.2817   32.5558    4.3527 H         1 UNK         0.0806 
    114 H114       27.1348   33.6154    3.2416 H         1 UNK         0.0806 
    115 H115       28.3294   30.3679    1.7213 H         1 UNK         0.3010 
    116 H116       29.9324   32.0365    0.0378 H         1 UNK         0.0829 
    117 H117       28.8722   29.1932   -0.2823 H         1 UNK         0.0813 
    118 H118       28.1780   30.6724   -0.9273 H         1 UNK         0.0813 
    119 H119       29.7071   30.0722   -1.5549 H         1 UNK         0.0813 
    120 H120       30.7502   29.0755    1.9336 H         1 UNK         0.3038 
    121 H121       33.5460   29.1419    0.9685 H         1 UNK         0.0769 
    122 H122       33.7778   27.0875    2.3180 H         1 UNK         0.0811 
    123 H123       32.1853   27.3111    3.0191 H         1 UNK         0.0811 
    124 H124       32.3488   26.9374    1.3134 H         1 UNK         0.0811 
    125 H125       35.2882   29.1859    2.5855 H         1 UNK         0.3204 
    126 H126       35.0877   31.4137    4.3806 H         1 UNK         0.0748 
    127 H127       37.4608   30.8433    4.9155 H         1 UNK         0.0771 
    128 H128       37.3168   29.3360    4.0215 H         1 UNK         0.0771 
    129 H129       37.1874   30.8820    3.1827 H         1 UNK         0.0771 
    130 H130       35.1599   27.8901    4.8820 H         1 UNK         0.2980 
    131 H131       34.7471   26.5413    6.5641 H         1 UNK         0.0545 
    132 H132       37.4445   28.1633    8.7374 H         1 UNK         0.3459 
    133 H133       37.1390   28.3982    7.0342 H         1 UNK         0.3459 
    134 H134       32.8651   27.1192    8.1602 H         1 UNK         0.0616 
    135 H135       32.8941   28.7561    7.5635 H         1 UNK         0.0616 
    136 H136       32.5194   25.0726    6.8477 H         1 UNK         0.0634 
    137 H137       30.8447   25.5031    7.1005 H         1 UNK         0.0634 
@<TRIPOS>BOND
     1    1    2 1    
     2    1   72 1    
     3    1   73 1    
     4    1   74 1    
     5    2    3 2    
     6    2    4 am   BACKBONE|DICT|INTERRES
     7    4    5 1    
     8    4   75 1    
     9    5    6 1    
    10    5   35 1    
    11    5   76 1    
    12    6    7 1    
    13    6   77 1    
    14    6   78 1    
    15    7    8 1    
    16    8    9 1    
    17    8   79 1    
    18    8   80 1    
    19    9   10 ar   
    20    9   14 ar   
    21   10   11 ar   
    22   10   81 1    
    23   11   12 ar   
    24   11   71 1    
    25   12   13 ar   
    26   12   82 1    
    27   13   14 ar   
    28   13   15 1    
    29   14   83 1    
    30   15   16 1    
    31   15   84 1    
    32   15   85 1    
    33   16   17 1    
    34   17   18 1    
    35   17   86 1    
    36   17   87 1    
    37   18   19 1    
    38   18   37 1    
    39   18   88 1    
    40   19   20 am   BACKBONE|DICT|INTERRES
    41   19   89 1    
    42   20   21 2    
    43   20   22 1    
    44   22   23 1    
    45   22   24 1    
    46   22   90 1    
    47   23   91 1    
    48   23   92 1    
    49   23   93 1    
    50   24   25 am   BACKBONE|DICT|INTERRES
    51   24   94 1    
    52   25   26 2    
    53   25   27 1    
    54   27   28 1    
    55   27   29 1    
    56   27   95 1    
    57   28   96 1    
    58   28   97 1    
    59   28   98 1    
    60   29   30 am   BACKBONE|DICT|INTERRES
    61   29   99 1    
    62   30   31 2    
    63   30   32 1    
    64   32   33 1    
    65   32   34 1    
    66   32  100 1    
    67   33  101 1    
    68   33  102 1    
    69   33  103 1    
    70   34   35 am   BACKBONE|DICT|INTERRES
    71   34  104 1    
    72   35   36 2    
    73   37   38 2    
    74   37   39 am   BACKBONE|DICT|INTERRES
    75   39   40 1    
    76   39  105 1    
    77   40   41 1    
    78   40   42 1    
    79   40  106 1    
    80   41  107 1    
    81   41  108 1    
    82   41  109 1    
    83   42   43 2    
    84   42   44 am   BACKBONE|DICT|INTERRES
    85   44   45 1    
    86   44  110 1    
    87   45   46 1    
    88   45   47 1    
    89   45  111 1    
    90   46  112 1    
    91   46  113 1    
    92   46  114 1    
    93   47   48 2    
    94   47   49 am   BACKBONE|DICT|INTERRES
    95   49   50 1    
    96   49  115 1    
    97   50   51 1    
    98   50   52 1    
    99   50  116 1    
   100   51  117 1    
   101   51  118 1    
   102   51  119 1    
   103   52   53 2    
   104   52   54 am   BACKBONE|DICT|INTERRES
   105   54   55 1    
   106   54  120 1    
   107   55   56 1    
   108   55   57 1    
   109   55  121 1    
   110   56  122 1    
   111   56  123 1    
   112   56  124 1    
   113   57   58 2    
   114   57   59 am   BACKBONE|DICT|INTERRES
   115   59   60 1    
   116   59  125 1    
   117   60   61 1    
   118   60   62 1    
   119   60  126 1    
   120   61  127 1    
   121   61  128 1    
   122   61  129 1    
   123   62   63 2    
   124   62   64 am   BACKBONE|DICT|INTERRES
   125   64   65 1    
   126   64  130 1    
   127   65   66 1    
   128   65   69 1    
   129   65  131 1    
   130   66   67 am   BACKBONE|DICT|INTERRES
   131   66   68 2    
   132   67  132 1    
   133   67  133 1    
   134   69   70 1    
   135   69  134 1    
   136   69  135 1    
   137   70   71 1    
   138   71  136 1    
   139   71  137 1    
@<TRIPOS>SUBSTRUCTURE
     1 UNK         1 GROUP             0       ****    0 ROOT    
