@<TRIPOS>MOLECULE
3R136
137   139    1
SMALL
USER_CHARGES


@<TRIPOS>ATOM
      1 CA         33.7554   24.7923    1.2014 C.3       0 UNK        -0.1979 
      2 C          32.6430   23.8827    0.6992 C.2       0 UNK         0.4864 
      3 O          32.8468   23.1613   -0.2778 O.2       0 UNK        -0.5359 
      4 N          31.4738   23.9231    1.3570 N.am      1 UNK        -0.4318 
      5 CA         30.2689   23.1281    1.0596 C.3       1 UNK         0.0824 
      6 C6         30.4255   21.6079    1.3504 C.3       12 UNK        -0.0944 
      7 S7         31.0744   21.2146    3.0085 S.3       12 UNK        -0.2672 
      8 C8         29.5789   21.3342    4.0503 C.3       12 UNK         0.0333 
      9 C9         29.2588   22.7597    4.4950 C.ar      12 UNK        -0.0807 
     10 C10        30.2742   23.6120    4.9415 C.ar      12 UNK        -0.0894 
     11 C11        29.9827   24.9049    5.3807 C.ar      12 UNK        -0.0804 
     12 C12        28.6571   25.3434    5.3986 C.ar      12 UNK        -0.0824 
     13 C13        27.6265   24.4968    4.9770 C.ar      12 UNK        -0.0762 
     14 C14        27.9341   23.2107    4.5173 C.ar      12 UNK        -0.0782 
     15 C15        26.1759   24.9521    5.0720 C.3       12 UNK         0.0230 
     16 S16        25.4570   25.3621    3.4512 S.3       12 UNK        -0.2608 
     17 C17        26.3762   26.8697    2.9891 C.3       12 UNK        -0.0989 
     18 CA         26.8533   26.8045    1.5120 C.3       5 UNK         0.0716 
     19 N          25.7552   26.7342    0.5378 N.am      5 UNK        -0.4135 
     20 C          24.7134   27.5683    0.3852 C.2       4 UNK         0.5031 
     21 O          24.5165   28.5648    1.0838 O.2       4 UNK        -0.5229 
     22 CA         23.6788   27.2002   -0.7042 C.3       4 UNK         0.0329 
     23 CB         22.9268   28.4288   -1.2624 C.3       4 UNK        -0.2001 
     24 N          24.2235   26.3647   -1.7840 N.am      4 UNK        -0.4303 
     25 C          25.1512   26.7128   -2.6868 C.2       3 UNK         0.5044 
     26 O          25.6164   27.8467   -2.8158 O.2       3 UNK        -0.5152 
     27 CA         25.6990   25.5712   -3.5629 C.3       3 UNK         0.0319 
     28 CB         25.4450   25.8441   -5.0548 C.3       3 UNK        -0.2001 
     29 N          27.1353   25.3869   -3.3360 N.am      3 UNK        -0.4354 
     30 C          27.6846   25.0790   -2.1525 C.2       2 UNK         0.4964 
     31 O          27.0216   24.8116   -1.1464 O.2       2 UNK        -0.5047 
     32 CA         29.2231   25.1238   -2.0822 C.3       2 UNK         0.0288 
     33 CB         29.7379   26.5529   -2.3323 C.3       2 UNK        -0.2113 
     34 N          29.7417   24.6612   -0.7912 N.am      2 UNK        -0.4145 
     35 C          29.7154   23.3903   -0.3631 C.2       1 UNK         0.5006 
     36 O          29.2919   22.4548   -1.0473 O.2       1 UNK        -0.5103 
     37 C          27.8780   27.9091    1.1771 C.2       5 UNK         0.5055 
     38 O          27.5960   28.8262    0.4036 O.2       5 UNK        -0.5220 
     39 N          29.0724   27.7875    1.7733 N.am      6 UNK        -0.4450 
     40 CA         30.1791   28.7417    1.6441 C.3       6 UNK         0.0367 
     41 CB         31.3674   28.0669    0.9369 C.3       6 UNK        -0.1929 
     42 C          30.5753   29.3144    3.0152 C.2       6 UNK         0.5070 
     43 O          31.7428   29.6596    3.2230 O.2       6 UNK        -0.5237 
     44 N          29.6053   29.4006    3.9369 N.am      7 UNK        -0.4739 
     45 CA         29.7667   29.9858    5.2686 C.3       7 UNK         0.0276 
     46 CB         28.4604   29.8237    6.0613 C.3       7 UNK        -0.1927 
     47 C          30.1683   31.4657    5.1636 C.2       7 UNK         0.5013 
     48 O          29.5372   32.2117    4.4124 O.2       7 UNK        -0.5193 
     49 N          31.2548   31.8321    5.8535 N.am      8 UNK        -0.4253 
     50 CA         31.9833   33.1105    5.8142 C.3       8 UNK         0.0242 
     51 CB         31.0789   34.3024    6.1866 C.3       8 UNK        -0.2000 
     52 C          32.7426   33.3739    4.4970 C.2       8 UNK         0.4948 
     53 O          33.7876   34.0237    4.5389 O.2       8 UNK        -0.5275 
     54 N          32.2346   32.8660    3.3661 N.am      9 UNK        -0.4246 
     55 CA         32.8453   32.9717    2.0401 C.3       9 UNK         0.0261 
     56 CB         31.8214   32.5718    0.9651 C.3       9 UNK        -0.1959 
     57 C          34.1316   32.1402    1.9030 C.2       9 UNK         0.5033 
     58 O          35.1104   32.6442    1.3491 O.2       9 UNK        -0.5390 
     59 N          34.1110   30.8971    2.4034 N.am      10 UNK        -0.4215 
     60 CA         35.2511   29.9758    2.3726 C.3       10 UNK         0.0240 
     61 CB         35.1592   29.0572    1.1413 C.3       10 UNK        -0.1982 
     62 C          35.3863   29.1396    3.6527 C.2       10 UNK         0.4970 
     63 O          36.5151   28.7901    4.0004 O.2       10 UNK        -0.4916 
     64 N          34.2709   28.8249    4.3252 N.am      11 UNK        -0.4279 
     65 CA         34.2340   27.9584    5.5162 C.3       11 UNK         0.1003 
     66 C          33.5374   28.6088    6.7432 C.2       11 UNK         0.5709 
     67 N          33.5006   29.9326    6.8405 N.am      11 UNK        -0.7358 
     68 O          33.0615   27.9194    7.6412 O.2       11 UNK        -0.4999 
     69 C69        33.7565   26.5203    5.1774 C.3       12 UNK        -0.0954 
     70 S70        32.0847   26.4139    4.4525 S.3       12 UNK        -0.2268 
     71 C71        31.1082   25.8051    5.8594 C.3       12 UNK         0.0203 
     72 H72        34.0102   25.5294    0.4405 H         1 UNK         0.0888 
     73 H73        33.4725   25.3253    2.1071 H         1 UNK         0.0888 
     74 H74        34.6476   24.2069    1.4217 H         1 UNK         0.0888 
     75 H75        31.4002   24.5146    2.1729 H         1 UNK         0.3017 
     76 H76        29.4975   23.5035    1.7332 H         1 UNK         0.0873 
     77 H77        29.4708   21.0934    1.2267 H         1 UNK         0.0745 
     78 H78        31.1033   21.1567    0.6234 H         1 UNK         0.0745 
     79 H79        29.7356   20.7293    4.9442 H         1 UNK         0.0705 
     80 H80        28.7337   20.8885    3.5238 H         1 UNK         0.0705 
     81 H81        31.3006   23.2711    4.9499 H         1 UNK         0.1334 
     82 H82        28.4271   26.3352    5.7621 H         1 UNK         0.1417 
     83 H83        27.1347   22.5550    4.1988 H         1 UNK         0.1562 
     84 H84        26.0805   25.8136    5.7350 H         1 UNK         0.0748 
     85 H85        25.5816   24.1574    5.5255 H         1 UNK         0.0748 
     86 H86        27.2226   26.9866    3.6648 H         1 UNK         0.0940 
     87 H87        25.7428   27.7392    3.1687 H         1 UNK         0.0940 
     88 H88        27.3932   25.8641    1.3861 H         1 UNK         0.0703 
     89 H89        25.8592   25.9761   -0.1298 H         1 UNK         0.3081 
     90 H90        22.9396   26.5769   -0.1988 H         1 UNK         0.0719 
     91 H91        23.6087   29.1584   -1.7000 H         1 UNK         0.0809 
     92 H92        22.2054   28.1407   -2.0268 H         1 UNK         0.0809 
     93 H93        22.3733   28.9392   -0.4733 H         1 UNK         0.0809 
     94 H94        23.9267   25.3981   -1.7669 H         1 UNK         0.2990 
     95 H95        25.1961   24.6389   -3.2969 H         1 UNK         0.0690 
     96 H96        25.7892   25.0161   -5.6749 H         1 UNK         0.0788 
     97 H97        25.9502   26.7501   -5.3924 H         1 UNK         0.0788 
     98 H98        24.3796   25.9736   -5.2504 H         1 UNK         0.0788 
     99 H99        27.7437   25.6216   -4.1069 H         1 UNK         0.2993 
    100 H100       29.6141   24.4652   -2.8610 H         1 UNK         0.0949 
    101 H101       29.3150   27.2639   -1.6209 H         1 UNK         0.0767 
    102 H102       30.8246   26.6029   -2.2591 H         1 UNK         0.0767 
    103 H103       29.4735   26.9026   -3.3308 H         1 UNK         0.0767 
    104 H104       30.1129   25.3656   -0.1736 H         1 UNK         0.3013 
    105 H105       29.2274   27.0240    2.4178 H         1 UNK         0.3121 
    106 H106       29.8741   29.5972    1.0384 H         1 UNK         0.0774 
    107 H107       32.1386   28.8018    0.7071 H         1 UNK         0.0815 
    108 H108       31.8213   27.2905    1.5521 H         1 UNK         0.0815 
    109 H109       31.0699   27.6187   -0.0083 H         1 UNK         0.0815 
    110 H110       28.6672   29.1523    3.6635 H         1 UNK         0.2987 
    111 H111       30.5559   29.4307    5.7809 H         1 UNK         0.0949 
    112 H112       27.6294   30.3419    5.5807 H         1 UNK         0.0806 
    113 H113       28.1860   28.7745    6.1682 H         1 UNK         0.0806 
    114 H114       28.5620   30.2345    7.0667 H         1 UNK         0.0806 
    115 H115       31.7159   31.1087    6.3892 H         1 UNK         0.3010 
    116 H116       32.7456   33.0315    6.5911 H         1 UNK         0.0829 
    117 H117       30.5738   34.1359    7.1379 H         1 UNK         0.0813 
    118 H118       31.6660   35.2162    6.2869 H         1 UNK         0.0813 
    119 H119       30.3174   34.4931    5.4300 H         1 UNK         0.0813 
    120 H120       31.3448   32.3848    3.4310 H         1 UNK         0.3038 
    121 H121       33.1096   34.0192    1.8796 H         1 UNK         0.0769 
    122 H122       32.2419   32.6899   -0.0346 H         1 UNK         0.0811 
    123 H123       30.9281   33.1946    1.0159 H         1 UNK         0.0811 
    124 H124       31.5119   31.5319    1.0655 H         1 UNK         0.0811 
    125 H125       33.2395   30.5477    2.7998 H         1 UNK         0.3204 
    126 H126       36.1730   30.5560    2.2923 H         1 UNK         0.0748 
    127 H127       36.0671   28.4621    1.0349 H         1 UNK         0.0771 
    128 H128       34.3268   28.3589    1.2211 H         1 UNK         0.0771 
    129 H129       35.0371   29.6294    0.2216 H         1 UNK         0.0771 
    130 H130       33.3610   29.1126    3.9756 H         1 UNK         0.2980 
    131 H131       35.2538   27.8373    5.8843 H         1 UNK         0.0545 
    132 H132       33.1565   30.3347    7.6981 H         1 UNK         0.3459 
    133 H133       33.9916   30.4967    6.1651 H         1 UNK         0.3459 
    134 H134       33.8320   25.8755    6.0538 H         1 UNK         0.0616 
    135 H135       34.4440   26.0852    4.4508 H         1 UNK         0.0616 
    136 H136       31.7361   25.2411    6.5499 H         1 UNK         0.0634 
    137 H137       30.7214   26.6578    6.4195 H         1 UNK         0.0634 
@<TRIPOS>BOND
     1    1    2 1    
     2    1   72 1    
     3    1   73 1    
     4    1   74 1    
     5    2    3 2    
     6    2    4 am   BACKBONE|DICT|INTERRES
     7    4    5 1    
     8    4   75 1    
     9    5    6 1    
    10    5   35 1    
    11    5   76 1    
    12    6    7 1    
    13    6   77 1    
    14    6   78 1    
    15    7    8 1    
    16    8    9 1    
    17    8   79 1    
    18    8   80 1    
    19    9   10 ar   
    20    9   14 ar   
    21   10   11 ar   
    22   10   81 1    
    23   11   12 ar   
    24   11   71 1    
    25   12   13 ar   
    26   12   82 1    
    27   13   14 ar   
    28   13   15 1    
    29   14   83 1    
    30   15   16 1    
    31   15   84 1    
    32   15   85 1    
    33   16   17 1    
    34   17   18 1    
    35   17   86 1    
    36   17   87 1    
    37   18   19 1    
    38   18   37 1    
    39   18   88 1    
    40   19   20 am   BACKBONE|DICT|INTERRES
    41   19   89 1    
    42   20   21 2    
    43   20   22 1    
    44   22   23 1    
    45   22   24 1    
    46   22   90 1    
    47   23   91 1    
    48   23   92 1    
    49   23   93 1    
    50   24   25 am   BACKBONE|DICT|INTERRES
    51   24   94 1    
    52   25   26 2    
    53   25   27 1    
    54   27   28 1    
    55   27   29 1    
    56   27   95 1    
    57   28   96 1    
    58   28   97 1    
    59   28   98 1    
    60   29   30 am   BACKBONE|DICT|INTERRES
    61   29   99 1    
    62   30   31 2    
    63   30   32 1    
    64   32   33 1    
    65   32   34 1    
    66   32  100 1    
    67   33  101 1    
    68   33  102 1    
    69   33  103 1    
    70   34   35 am   BACKBONE|DICT|INTERRES
    71   34  104 1    
    72   35   36 2    
    73   37   38 2    
    74   37   39 am   BACKBONE|DICT|INTERRES
    75   39   40 1    
    76   39  105 1    
    77   40   41 1    
    78   40   42 1    
    79   40  106 1    
    80   41  107 1    
    81   41  108 1    
    82   41  109 1    
    83   42   43 2    
    84   42   44 am   BACKBONE|DICT|INTERRES
    85   44   45 1    
    86   44  110 1    
    87   45   46 1    
    88   45   47 1    
    89   45  111 1    
    90   46  112 1    
    91   46  113 1    
    92   46  114 1    
    93   47   48 2    
    94   47   49 am   BACKBONE|DICT|INTERRES
    95   49   50 1    
    96   49  115 1    
    97   50   51 1    
    98   50   52 1    
    99   50  116 1    
   100   51  117 1    
   101   51  118 1    
   102   51  119 1    
   103   52   53 2    
   104   52   54 am   BACKBONE|DICT|INTERRES
   105   54   55 1    
   106   54  120 1    
   107   55   56 1    
   108   55   57 1    
   109   55  121 1    
   110   56  122 1    
   111   56  123 1    
   112   56  124 1    
   113   57   58 2    
   114   57   59 am   BACKBONE|DICT|INTERRES
   115   59   60 1    
   116   59  125 1    
   117   60   61 1    
   118   60   62 1    
   119   60  126 1    
   120   61  127 1    
   121   61  128 1    
   122   61  129 1    
   123   62   63 2    
   124   62   64 am   BACKBONE|DICT|INTERRES
   125   64   65 1    
   126   64  130 1    
   127   65   66 1    
   128   65   69 1    
   129   65  131 1    
   130   66   67 am   BACKBONE|DICT|INTERRES
   131   66   68 2    
   132   67  132 1    
   133   67  133 1    
   134   69   70 1    
   135   69  134 1    
   136   69  135 1    
   137   70   71 1    
   138   71  136 1    
   139   71  137 1    
@<TRIPOS>SUBSTRUCTURE
     1 UNK         1 GROUP             0       ****    0 ROOT    
