@<TRIPOS>MOLECULE
3R136
137   139    1
SMALL
USER_CHARGES


@<TRIPOS>ATOM
      1 CA         29.8047   18.8172   -3.8523 C.3       0 UNK        -0.1979 
      2 C          29.6269   20.2192   -3.2879 C.2       0 UNK         0.4864 
      3 O          29.6469   21.1904   -4.0460 O.2       0 UNK        -0.5359 
      4 N          29.4612   20.3328   -1.9635 N.am      1 UNK        -0.4318 
      5 CA         29.2100   21.5923   -1.2581 C.3       1 UNK         0.0824 
      6 C6         29.4604   21.4339    0.2621 C.3       12 UNK        -0.0944 
      7 S7         29.6805   23.0227    1.1317 S.3       12 UNK        -0.2672 
      8 C8         29.5864   22.4324    2.8481 C.3       12 UNK         0.0333 
      9 C9         30.0471   23.4866    3.8428 C.ar      12 UNK        -0.0807 
     10 C10        31.4136   23.7291    4.0130 C.ar      12 UNK        -0.0894 
     11 C11        31.8591   24.6363    4.9779 C.ar      12 UNK        -0.0804 
     12 C12        30.9260   25.3079    5.7728 C.ar      12 UNK        -0.0824 
     13 C13        29.5564   25.0736    5.6149 C.ar      12 UNK        -0.0762 
     14 C14        29.1221   24.1671    4.6421 C.ar      12 UNK        -0.0782 
     15 C15        28.5513   25.7349    6.5494 C.3       12 UNK         0.0230 
     16 S16        27.7988   27.2287    5.8342 S.3       12 UNK        -0.2608 
     17 C17        29.1667   28.4426    5.9434 C.3       12 UNK        -0.0989 
     18 CA         29.4815   29.1414    4.5967 C.3       5 UNK         0.0716 
     19 N          29.6494   28.1730    3.5108 N.am      5 UNK        -0.4135 
     20 C          29.9432   28.4458    2.2336 C.2       4 UNK         0.5031 
     21 O          30.1660   29.5731    1.7939 O.2       4 UNK        -0.5229 
     22 CA         29.9010   27.2566    1.2598 C.3       4 UNK         0.0329 
     23 CB         31.2471   26.5163    1.2681 C.3       4 UNK        -0.2001 
     24 N          28.8142   26.2956    1.5008 N.am      4 UNK        -0.4303 
     25 C          27.5166   26.5838    1.6918 C.2       3 UNK         0.5044 
     26 O          27.0661   27.7283    1.7647 O.2       3 UNK        -0.5152 
     27 CA         26.5716   25.3747    1.7946 C.3       3 UNK         0.0319 
     28 CB         25.1548   25.7564    2.2736 C.3       3 UNK        -0.2001 
     29 N          26.5300   24.6275    0.5319 N.am      3 UNK        -0.4354 
     30 C          26.1346   25.0732   -0.6729 C.2       2 UNK         0.4964 
     31 O          25.6352   26.1809   -0.8707 O.2       2 UNK        -0.5047 
     32 CA         26.3667   24.1219   -1.8610 C.3       2 UNK         0.0288 
     33 CB         26.3715   24.8567   -3.2159 C.3       2 UNK        -0.2113 
     34 N          27.6402   23.4169   -1.6985 N.am      2 UNK        -0.4145 
     35 C          27.7798   22.0959   -1.5417 C.2       1 UNK         0.5006 
     36 O          26.8419   21.2940   -1.5649 O.2       1 UNK        -0.5103 
     37 C          28.4542   30.2565    4.3005 C.2       5 UNK         0.5055 
     38 O          28.6779   31.3977    4.7077 O.2       5 UNK        -0.5220 
     39 N          27.3567   29.9105    3.6157 N.am      6 UNK        -0.4450 
     40 CA         26.2865   30.8296    3.2354 C.3       6 UNK         0.0367 
     41 CB         24.9337   30.1121    3.3758 C.3       6 UNK        -0.1929 
     42 C          26.4742   31.3415    1.8011 C.2       6 UNK         0.5070 
     43 O          26.1893   32.5099    1.5378 O.2       6 UNK        -0.5237 
     44 N          26.9346   30.4642    0.8981 N.am      7 UNK        -0.4739 
     45 CA         27.1340   30.7601   -0.5225 C.3       7 UNK         0.0276 
     46 CB         27.3370   29.4456   -1.2916 C.3       7 UNK        -0.1927 
     47 C          28.2938   31.7322   -0.7974 C.2       7 UNK         0.5013 
     48 O          28.2111   32.5006   -1.7571 O.2       7 UNK        -0.5193 
     49 N          29.3432   31.6827    0.0314 N.am      8 UNK        -0.4253 
     50 CA         30.5260   32.5309   -0.0643 C.3       8 UNK         0.0242 
     51 CB         31.6787   31.7417   -0.7181 C.3       8 UNK        -0.2000 
     52 C          30.8722   33.0698    1.3286 C.2       8 UNK         0.4948 
     53 O          30.4750   34.1881    1.6585 O.2       8 UNK        -0.5275 
     54 N          31.6062   32.2762    2.1133 N.am      9 UNK        -0.4246 
     55 CA         32.1068   32.5821    3.4496 C.3       9 UNK         0.0261 
     56 CB         33.2273   33.6399    3.3781 C.3       9 UNK        -0.1959 
     57 C          32.6283   31.2774    4.0632 C.2       9 UNK         0.5033 
     58 O          32.8175   30.2977    3.3364 O.2       9 UNK        -0.5390 
     59 N          32.8506   31.2828    5.3851 N.am      10 UNK        -0.4215 
     60 CA         33.3699   30.1453    6.1528 C.3       10 UNK         0.0240 
     61 CB         33.4420   30.5237    7.6408 C.3       10 UNK        -0.1982 
     62 C          34.7430   29.6675    5.6450 C.2       10 UNK         0.4970 
     63 O          35.5905   30.4948    5.3008 O.2       10 UNK        -0.4916 
     64 N          34.9195   28.3428    5.6053 N.am      11 UNK        -0.4279 
     65 CA         36.0570   27.6621    4.9641 C.3       11 UNK         0.1003 
     66 C          37.4284   27.8216    5.6842 C.2       11 UNK         0.5709 
     67 N          37.4810   28.3102    6.9176 N.am      11 UNK        -0.7358 
     68 O          38.4646   27.4966    5.1091 O.2       11 UNK        -0.4999 
     69 C69        35.7533   26.1638    4.6831 C.3       12 UNK        -0.0954 
     70 S70        34.1141   25.8720    3.9251 S.3       12 UNK        -0.2268 
     71 C71        33.3483   24.8389    5.2110 C.3       12 UNK         0.0203 
     72 H72        29.7793   18.0569   -3.0717 H         1 UNK         0.0888 
     73 H73        29.0110   18.5969   -4.5657 H         1 UNK         0.0888 
     74 H74        30.7603   18.7393   -4.3700 H         1 UNK         0.0888 
     75 H75        29.4213   19.4974   -1.3974 H         1 UNK         0.3017 
     76 H76        29.9218   22.3240   -1.6478 H         1 UNK         0.0873 
     77 H77        28.6580   20.8628    0.7347 H         1 UNK         0.0745 
     78 H78        30.3736   20.8590    0.4264 H         1 UNK         0.0745 
     79 H79        28.5638   22.1180    3.0633 H         1 UNK         0.0705 
     80 H80        30.2098   21.5437    2.9596 H         1 UNK         0.0705 
     81 H81        32.1333   23.1945    3.4076 H         1 UNK         0.1334 
     82 H82        31.2705   25.9846    6.5423 H         1 UNK         0.1417 
     83 H83        28.0653   23.9623    4.5396 H         1 UNK         0.1562 
     84 H84        29.0178   25.9840    7.5040 H         1 UNK         0.0748 
     85 H85        27.7557   25.0261    6.7843 H         1 UNK         0.0748 
     86 H86        30.0671   27.9473    6.3033 H         1 UNK         0.0940 
     87 H87        28.9238   29.1736    6.7177 H         1 UNK         0.0940 
     88 H88        30.4435   29.6386    4.7089 H         1 UNK         0.0703 
     89 H89        29.4545   27.2128    3.7553 H         1 UNK         0.3081 
     90 H90        29.7498   27.6637    0.2596 H         1 UNK         0.0719 
     91 H91        32.0747   27.2048    1.0905 H         1 UNK         0.0809 
     92 H92        31.2889   25.7534    0.4907 H         1 UNK         0.0809 
     93 H93        31.4317   26.0291    2.2259 H         1 UNK         0.0809 
     94 H94        29.0789   25.3197    1.4596 H         1 UNK         0.2990 
     95 H95        26.9972   24.7026    2.5399 H         1 UNK         0.0690 
     96 H96        24.5186   24.8770    2.3705 H         1 UNK         0.0788 
     97 H97        24.6643   26.4519    1.5918 H         1 UNK         0.0788 
     98 H98        25.1949   26.2391    3.2511 H         1 UNK         0.0788 
     99 H99        26.9285   23.6999    0.5679 H         1 UNK         0.2993 
    100 H100       25.5321   23.4174   -1.8615 H         1 UNK         0.0949 
    101 H101       25.4144   25.3462   -3.4013 H         1 UNK         0.0767 
    102 H102       27.1456   25.6242   -3.2558 H         1 UNK         0.0767 
    103 H103       26.5433   24.1640   -4.0401 H         1 UNK         0.0767 
    104 H104       28.4630   24.0009   -1.6350 H         1 UNK         0.3013 
    105 H105       27.2821   28.9631    3.2566 H         1 UNK         0.3121 
    106 H106       26.2812   31.6936    3.9036 H         1 UNK         0.0774 
    107 H107       24.1106   30.7764    3.1095 H         1 UNK         0.0815 
    108 H108       24.8697   29.2363    2.7283 H         1 UNK         0.0815 
    109 H109       24.7663   29.7820    4.4011 H         1 UNK         0.0815 
    110 H110       27.0944   29.5032    1.1925 H         1 UNK         0.2987 
    111 H111       26.2212   31.2310   -0.8943 H         1 UNK         0.0949 
    112 H112       26.4900   28.7727   -1.1566 H         1 UNK         0.0806 
    113 H113       27.4379   29.6297   -2.3619 H         1 UNK         0.0806 
    114 H114       28.2344   28.9220   -0.9643 H         1 UNK         0.0806 
    115 H115       29.3491   31.0005    0.7866 H         1 UNK         0.3010 
    116 H116       30.3182   33.4020   -0.6896 H         1 UNK         0.0829 
    117 H117       31.4506   31.5120   -1.7590 H         1 UNK         0.0813 
    118 H118       32.6041   32.3192   -0.7105 H         1 UNK         0.0813 
    119 H119       31.8725   30.7964   -0.2096 H         1 UNK         0.0813 
    120 H120       31.8097   31.3252    1.8193 H         1 UNK         0.3038 
    121 H121       31.2785   32.9492    4.0595 H         1 UNK         0.0769 
    122 H122       34.0577   33.3007    2.7575 H         1 UNK         0.0811 
    123 H123       33.6291   33.8594    4.3679 H         1 UNK         0.0811 
    124 H124       32.8660   34.5821    2.9663 H         1 UNK         0.0811 
    125 H125       32.6971   32.1389    5.8980 H         1 UNK         0.3204 
    126 H126       32.6543   29.3281    6.0391 H         1 UNK         0.0748 
    127 H127       33.7952   29.6846    8.2418 H         1 UNK         0.0771 
    128 H128       34.1250   31.3571    7.8118 H         1 UNK         0.0771 
    129 H129       32.4626   30.8062    8.0277 H         1 UNK         0.0771 
    130 H130       34.1749   27.7384    5.9161 H         1 UNK         0.2980 
    131 H131       36.1848   28.1427    3.9921 H         1 UNK         0.0545 
    132 H132       36.6375   28.5884    7.3921 H         1 UNK         0.3459 
    133 H133       38.3750   28.4117    7.3715 H         1 UNK         0.3459 
    134 H134       36.5049   25.7508    4.0080 H         1 UNK         0.0616 
    135 H135       35.8334   25.5848    5.6051 H         1 UNK         0.0616 
    136 H136       33.8497   23.8702    5.2356 H         1 UNK         0.0634 
    137 H137       33.5152   25.2956    6.1878 H         1 UNK         0.0634 
@<TRIPOS>BOND
     1    1    2 1    
     2    1   72 1    
     3    1   73 1    
     4    1   74 1    
     5    2    3 2    
     6    2    4 am   BACKBONE|DICT|INTERRES
     7    4    5 1    
     8    4   75 1    
     9    5    6 1    
    10    5   35 1    
    11    5   76 1    
    12    6    7 1    
    13    6   77 1    
    14    6   78 1    
    15    7    8 1    
    16    8    9 1    
    17    8   79 1    
    18    8   80 1    
    19    9   10 ar   
    20    9   14 ar   
    21   10   11 ar   
    22   10   81 1    
    23   11   12 ar   
    24   11   71 1    
    25   12   13 ar   
    26   12   82 1    
    27   13   14 ar   
    28   13   15 1    
    29   14   83 1    
    30   15   16 1    
    31   15   84 1    
    32   15   85 1    
    33   16   17 1    
    34   17   18 1    
    35   17   86 1    
    36   17   87 1    
    37   18   19 1    
    38   18   37 1    
    39   18   88 1    
    40   19   20 am   BACKBONE|DICT|INTERRES
    41   19   89 1    
    42   20   21 2    
    43   20   22 1    
    44   22   23 1    
    45   22   24 1    
    46   22   90 1    
    47   23   91 1    
    48   23   92 1    
    49   23   93 1    
    50   24   25 am   BACKBONE|DICT|INTERRES
    51   24   94 1    
    52   25   26 2    
    53   25   27 1    
    54   27   28 1    
    55   27   29 1    
    56   27   95 1    
    57   28   96 1    
    58   28   97 1    
    59   28   98 1    
    60   29   30 am   BACKBONE|DICT|INTERRES
    61   29   99 1    
    62   30   31 2    
    63   30   32 1    
    64   32   33 1    
    65   32   34 1    
    66   32  100 1    
    67   33  101 1    
    68   33  102 1    
    69   33  103 1    
    70   34   35 am   BACKBONE|DICT|INTERRES
    71   34  104 1    
    72   35   36 2    
    73   37   38 2    
    74   37   39 am   BACKBONE|DICT|INTERRES
    75   39   40 1    
    76   39  105 1    
    77   40   41 1    
    78   40   42 1    
    79   40  106 1    
    80   41  107 1    
    81   41  108 1    
    82   41  109 1    
    83   42   43 2    
    84   42   44 am   BACKBONE|DICT|INTERRES
    85   44   45 1    
    86   44  110 1    
    87   45   46 1    
    88   45   47 1    
    89   45  111 1    
    90   46  112 1    
    91   46  113 1    
    92   46  114 1    
    93   47   48 2    
    94   47   49 am   BACKBONE|DICT|INTERRES
    95   49   50 1    
    96   49  115 1    
    97   50   51 1    
    98   50   52 1    
    99   50  116 1    
   100   51  117 1    
   101   51  118 1    
   102   51  119 1    
   103   52   53 2    
   104   52   54 am   BACKBONE|DICT|INTERRES
   105   54   55 1    
   106   54  120 1    
   107   55   56 1    
   108   55   57 1    
   109   55  121 1    
   110   56  122 1    
   111   56  123 1    
   112   56  124 1    
   113   57   58 2    
   114   57   59 am   BACKBONE|DICT|INTERRES
   115   59   60 1    
   116   59  125 1    
   117   60   61 1    
   118   60   62 1    
   119   60  126 1    
   120   61  127 1    
   121   61  128 1    
   122   61  129 1    
   123   62   63 2    
   124   62   64 am   BACKBONE|DICT|INTERRES
   125   64   65 1    
   126   64  130 1    
   127   65   66 1    
   128   65   69 1    
   129   65  131 1    
   130   66   67 am   BACKBONE|DICT|INTERRES
   131   66   68 2    
   132   67  132 1    
   133   67  133 1    
   134   69   70 1    
   135   69  134 1    
   136   69  135 1    
   137   70   71 1    
   138   71  136 1    
   139   71  137 1    
@<TRIPOS>SUBSTRUCTURE
     1 UNK         1 GROUP             0       ****    0 ROOT    
