@<TRIPOS>MOLECULE
3R136
137   139    1
SMALL
USER_CHARGES


@<TRIPOS>ATOM
      1 CA         26.4435   23.3169   -2.0678 C.3       0 UNK        -0.1979 
      2 C          27.6311   24.1397   -2.5440 C.2       0 UNK         0.4864 
      3 O          27.9081   24.1679   -3.7441 O.2       0 UNK        -0.5359 
      4 N          28.3350   24.7953   -1.6119 N.am      1 UNK        -0.4318 
      5 CA         29.4872   25.6605   -1.8894 C.3       1 UNK         0.0824 
      6 C6         30.5271   25.6459   -0.7390 C.3       12 UNK        -0.0944 
      7 S7         31.2727   23.9823   -0.6090 S.3       12 UNK        -0.2672 
      8 C8         32.6835   24.2411    0.5102 C.3       12 UNK         0.0333 
      9 C9         32.2805   24.1135    1.9719 C.ar      12 UNK        -0.0807 
     10 C10        32.2387   25.2438    2.7910 C.ar      12 UNK        -0.0894 
     11 C11        31.8799   25.1330    4.1355 C.ar      12 UNK        -0.0804 
     12 C12        31.5822   23.8763    4.6685 C.ar      12 UNK        -0.0824 
     13 C13        31.5962   22.7382    3.8556 C.ar      12 UNK        -0.0762 
     14 C14        31.9589   22.8616    2.5099 C.ar      12 UNK        -0.0782 
     15 C15        31.1762   21.3873    4.4236 C.3       12 UNK         0.0230 
     16 S16        29.4370   20.9823    4.0292 S.3       12 UNK        -0.2608 
     17 C17        28.5404   22.3611    4.8232 C.3       12 UNK        -0.0989 
     18 CA         28.2620   23.4953    3.7974 C.3       5 UNK         0.0716 
     19 N          27.1572   23.2053    2.8822 N.am      5 UNK        -0.4135 
     20 C          25.8474   23.2180    3.1559 C.2       4 UNK         0.5031 
     21 O          25.3688   23.3856    4.2793 O.2       4 UNK        -0.5229 
     22 CA         24.9164   23.0582    1.9376 C.3       4 UNK         0.0329 
     23 CB         23.6212   22.3109    2.3028 C.3       4 UNK        -0.2001 
     24 N          24.5671   24.3457    1.3253 N.am      4 UNK        -0.4303 
     25 C          25.4268   25.2315    0.8035 C.2       3 UNK         0.5044 
     26 O          26.6506   25.0578    0.7629 O.2       3 UNK        -0.5152 
     27 CA         24.8227   26.5051    0.1894 C.3       3 UNK         0.0319 
     28 CB         23.8452   27.2272    1.1361 C.3       3 UNK        -0.2001 
     29 N          25.9222   27.3929   -0.1730 N.am      3 UNK        -0.4354 
     30 C          25.9793   28.1925   -1.2450 C.2       2 UNK         0.4964 
     31 O          25.0251   28.4173   -1.9898 O.2       2 UNK        -0.5047 
     32 CA         27.3552   28.7975   -1.5688 C.3       2 UNK         0.0288 
     33 CB         27.6005   30.0656   -0.7344 C.3       2 UNK        -0.2113 
     34 N          28.3922   27.7888   -1.3131 N.am      2 UNK        -0.4145 
     35 C          28.9619   27.0560   -2.2790 C.2       1 UNK         0.5006 
     36 O          28.9930   27.3994   -3.4625 O.2       1 UNK        -0.5103 
     37 C          28.1677   24.9104    4.4086 C.2       5 UNK         0.5055 
     38 O          28.3326   25.0885    5.6172 O.2       5 UNK        -0.5220 
     39 N          27.9479   25.8986    3.5359 N.am      6 UNK        -0.4450 
     40 CA         28.1407   27.3182    3.8029 C.3       6 UNK         0.0367 
     41 CB         26.7981   27.9856    4.1319 C.3       6 UNK        -0.1929 
     42 C          28.7601   27.9167    2.5389 C.2       6 UNK         0.5070 
     43 O          28.4238   27.4701    1.4379 O.2       6 UNK        -0.5237 
     44 N          29.6423   28.9023    2.7078 N.am      7 UNK        -0.4739 
     45 CA         30.3841   29.5573    1.6313 C.3       7 UNK         0.0276 
     46 CB         31.7723   28.9032    1.5151 C.3       7 UNK        -0.1927 
     47 C          30.4824   31.0683    1.8834 C.2       7 UNK         0.5013 
     48 O          30.0103   31.5588    2.9127 O.2       7 UNK        -0.5193 
     49 N          31.1128   31.7795    0.9424 N.am      8 UNK        -0.4253 
     50 CA         31.5854   33.1507    1.1308 C.3       8 UNK         0.0242 
     51 CB         31.5988   33.8685   -0.2289 C.3       8 UNK        -0.2000 
     52 C          32.9979   33.1168    1.7379 C.2       8 UNK         0.4948 
     53 O          33.7478   32.1751    1.4683 O.2       8 UNK        -0.5275 
     54 N          33.3418   34.1549    2.5135 N.am      9 UNK        -0.4246 
     55 CA         34.5929   34.3075    3.2679 C.3       9 UNK         0.0261 
     56 CB         35.8149   34.4275    2.3262 C.3       9 UNK        -0.1959 
     57 C          34.7178   33.2175    4.3504 C.2       9 UNK         0.5033 
     58 O          33.8949   33.2088    5.2691 O.2       9 UNK        -0.5390 
     59 N          35.7205   32.3327    4.2418 N.am      10 UNK        -0.4215 
     60 CA         35.9623   31.2028    5.1461 C.3       10 UNK         0.0240 
     61 CB         37.2332   30.4569    4.7049 C.3       10 UNK        -0.1982 
     62 C          34.7500   30.2557    5.1983 C.2       10 UNK         0.4970 
     63 O          34.4108   29.6610    4.1748 O.2       10 UNK        -0.4916 
     64 N          34.1086   30.1988    6.3742 N.am      11 UNK        -0.4279 
     65 CA         32.7934   29.5903    6.6479 C.3       11 UNK         0.1003 
     66 C          31.6267   30.0577    5.7232 C.2       11 UNK         0.5709 
     67 N          31.6954   31.2539    5.1551 N.am      11 UNK        -0.7358 
     68 O          30.6321   29.3596    5.5416 O.2       11 UNK        -0.4999 
     69 C69        32.8405   28.0650    6.9668 C.3       12 UNK        -0.0954 
     70 S70        33.3647   26.9354    5.6303 S.3       12 UNK        -0.2268 
     71 C71        31.7568   26.3774    4.9967 C.3       12 UNK         0.0203 
     72 H72        25.5287   23.9057   -2.1273 H         1 UNK         0.0888 
     73 H73        26.3206   22.4306   -2.6897 H         1 UNK         0.0888 
     74 H74        26.5774   22.9840   -1.0393 H         1 UNK         0.0888 
     75 H75        28.0058   24.7825   -0.6512 H         1 UNK         0.3017 
     76 H76        29.9996   25.2779   -2.7756 H         1 UNK         0.0873 
     77 H77        31.3190   26.3729   -0.9275 H         1 UNK         0.0745 
     78 H78        30.0757   25.9046    0.2189 H         1 UNK         0.0745 
     79 H79        33.4450   23.4920    0.2887 H         1 UNK         0.0705 
     80 H80        33.1437   25.2097    0.3088 H         1 UNK         0.0705 
     81 H81        32.4874   26.2132    2.3874 H         1 UNK         0.1334 
     82 H82        31.2958   23.7929    5.7080 H         1 UNK         0.1417 
     83 H83        31.9702   21.9864    1.8742 H         1 UNK         0.1562 
     84 H84        31.3152   21.3662    5.5056 H         1 UNK         0.0748 
     85 H85        31.8210   20.6051    4.0203 H         1 UNK         0.0748 
     86 H86        29.1353   22.7048    5.6700 H         1 UNK         0.0940 
     87 H87        27.6094   21.9890    5.2533 H         1 UNK         0.0940 
     88 H88        29.1300   23.5703    3.1424 H         1 UNK         0.0703 
     89 H89        27.4207   23.1302    1.9095 H         1 UNK         0.3081 
     90 H90        25.4390   22.4615    1.1873 H         1 UNK         0.0719 
     91 H91        23.0094   22.8785    3.0052 H         1 UNK         0.0809 
     92 H92        23.0165   22.1080    1.4187 H         1 UNK         0.0809 
     93 H93        23.8441   21.3499    2.7685 H         1 UNK         0.0809 
     94 H94        23.5851   24.5795    1.3232 H         1 UNK         0.2990 
     95 H95        24.2912   26.2054   -0.7162 H         1 UNK         0.0690 
     96 H96        23.5310   28.1860    0.7233 H         1 UNK         0.0788 
     97 H97        24.2865   27.4149    2.1134 H         1 UNK         0.0788 
     98 H98        22.9405   26.6401    1.2953 H         1 UNK         0.0788 
     99 H99        26.7632   27.2498    0.3799 H         1 UNK         0.2993 
    100 H100       27.3507   29.0851   -2.6225 H         1 UNK         0.0949 
    101 H101       26.8390   30.8176   -0.9451 H         1 UNK         0.0767 
    102 H102       27.5647   29.8649    0.3366 H         1 UNK         0.0767 
    103 H103       28.5655   30.5136   -0.9704 H         1 UNK         0.0767 
    104 H104       28.4673   27.4738   -0.3468 H         1 UNK         0.3013 
    105 H105       27.8216   25.6784    2.5520 H         1 UNK         0.3121 
    106 H106       28.8310   27.4523    4.6384 H         1 UNK         0.0774 
    107 H107       26.9424   29.0329    4.3998 H         1 UNK         0.0815 
    108 H108       26.1204   27.9578    3.2807 H         1 UNK         0.0815 
    109 H109       26.3063   27.4971    4.9732 H         1 UNK         0.0815 
    110 H110       29.8331   29.2537    3.6428 H         1 UNK         0.2987 
    111 H111       29.8671   29.4255    0.6821 H         1 UNK         0.0949 
    112 H112       32.4089   29.4118    0.7907 H         1 UNK         0.0806 
    113 H113       32.3004   28.9075    2.4700 H         1 UNK         0.0806 
    114 H114       31.6798   27.8723    1.1792 H         1 UNK         0.0806 
    115 H115       31.5107   31.2882    0.1553 H         1 UNK         0.3010 
    116 H116       30.9143   33.6868    1.8059 H         1 UNK         0.0829 
    117 H117       30.6047   33.8884   -0.6761 H         1 UNK         0.0813 
    118 H118       31.9259   34.9035   -0.1215 H         1 UNK         0.0813 
    119 H119       32.2751   33.3852   -0.9354 H         1 UNK         0.0813 
    120 H120       32.6491   34.8713    2.6833 H         1 UNK         0.3038 
    121 H121       34.5098   35.2526    3.8070 H         1 UNK         0.0769 
    122 H122       35.9772   33.5308    1.7278 H         1 UNK         0.0811 
    123 H123       36.7283   34.6187    2.8912 H         1 UNK         0.0811 
    124 H124       35.6907   35.2611    1.6349 H         1 UNK         0.0811 
    125 H125       36.3093   32.3886    3.4240 H         1 UNK         0.3204 
    126 H126       36.1396   31.6115    6.1431 H         1 UNK         0.0748 
    127 H127       38.1065   31.1091    4.7293 H         1 UNK         0.0771 
    128 H128       37.4395   29.6148    5.3670 H         1 UNK         0.0771 
    129 H129       37.1380   30.0592    3.6934 H         1 UNK         0.0771 
    130 H130       34.4764   30.7552    7.1320 H         1 UNK         0.2980 
    131 H131       32.5136   30.0494    7.5967 H         1 UNK         0.0545 
    132 H132       30.9583   31.5264    4.5125 H         1 UNK         0.3459 
    133 H133       32.4962   31.8614    5.2956 H         1 UNK         0.3459 
    134 H134       33.5358   27.9071    7.7921 H         1 UNK         0.0616 
    135 H135       31.8745   27.7378    7.3540 H         1 UNK         0.0616 
    136 H136       31.0712   26.1919    5.8242 H         1 UNK         0.0634 
    137 H137       31.3167   27.1756    4.4017 H         1 UNK         0.0634 
@<TRIPOS>BOND
     1    1    2 1    
     2    1   72 1    
     3    1   73 1    
     4    1   74 1    
     5    2    3 2    
     6    2    4 am   BACKBONE|DICT|INTERRES
     7    4    5 1    
     8    4   75 1    
     9    5    6 1    
    10    5   35 1    
    11    5   76 1    
    12    6    7 1    
    13    6   77 1    
    14    6   78 1    
    15    7    8 1    
    16    8    9 1    
    17    8   79 1    
    18    8   80 1    
    19    9   10 ar   
    20    9   14 ar   
    21   10   11 ar   
    22   10   81 1    
    23   11   12 ar   
    24   11   71 1    
    25   12   13 ar   
    26   12   82 1    
    27   13   14 ar   
    28   13   15 1    
    29   14   83 1    
    30   15   16 1    
    31   15   84 1    
    32   15   85 1    
    33   16   17 1    
    34   17   18 1    
    35   17   86 1    
    36   17   87 1    
    37   18   19 1    
    38   18   37 1    
    39   18   88 1    
    40   19   20 am   BACKBONE|DICT|INTERRES
    41   19   89 1    
    42   20   21 2    
    43   20   22 1    
    44   22   23 1    
    45   22   24 1    
    46   22   90 1    
    47   23   91 1    
    48   23   92 1    
    49   23   93 1    
    50   24   25 am   BACKBONE|DICT|INTERRES
    51   24   94 1    
    52   25   26 2    
    53   25   27 1    
    54   27   28 1    
    55   27   29 1    
    56   27   95 1    
    57   28   96 1    
    58   28   97 1    
    59   28   98 1    
    60   29   30 am   BACKBONE|DICT|INTERRES
    61   29   99 1    
    62   30   31 2    
    63   30   32 1    
    64   32   33 1    
    65   32   34 1    
    66   32  100 1    
    67   33  101 1    
    68   33  102 1    
    69   33  103 1    
    70   34   35 am   BACKBONE|DICT|INTERRES
    71   34  104 1    
    72   35   36 2    
    73   37   38 2    
    74   37   39 am   BACKBONE|DICT|INTERRES
    75   39   40 1    
    76   39  105 1    
    77   40   41 1    
    78   40   42 1    
    79   40  106 1    
    80   41  107 1    
    81   41  108 1    
    82   41  109 1    
    83   42   43 2    
    84   42   44 am   BACKBONE|DICT|INTERRES
    85   44   45 1    
    86   44  110 1    
    87   45   46 1    
    88   45   47 1    
    89   45  111 1    
    90   46  112 1    
    91   46  113 1    
    92   46  114 1    
    93   47   48 2    
    94   47   49 am   BACKBONE|DICT|INTERRES
    95   49   50 1    
    96   49  115 1    
    97   50   51 1    
    98   50   52 1    
    99   50  116 1    
   100   51  117 1    
   101   51  118 1    
   102   51  119 1    
   103   52   53 2    
   104   52   54 am   BACKBONE|DICT|INTERRES
   105   54   55 1    
   106   54  120 1    
   107   55   56 1    
   108   55   57 1    
   109   55  121 1    
   110   56  122 1    
   111   56  123 1    
   112   56  124 1    
   113   57   58 2    
   114   57   59 am   BACKBONE|DICT|INTERRES
   115   59   60 1    
   116   59  125 1    
   117   60   61 1    
   118   60   62 1    
   119   60  126 1    
   120   61  127 1    
   121   61  128 1    
   122   61  129 1    
   123   62   63 2    
   124   62   64 am   BACKBONE|DICT|INTERRES
   125   64   65 1    
   126   64  130 1    
   127   65   66 1    
   128   65   69 1    
   129   65  131 1    
   130   66   67 am   BACKBONE|DICT|INTERRES
   131   66   68 2    
   132   67  132 1    
   133   67  133 1    
   134   69   70 1    
   135   69  134 1    
   136   69  135 1    
   137   70   71 1    
   138   71  136 1    
   139   71  137 1    
@<TRIPOS>SUBSTRUCTURE
     1 UNK         1 GROUP             0       ****    0 ROOT    
