@<TRIPOS>MOLECULE
3R136
137   139    1
SMALL
USER_CHARGES


@<TRIPOS>ATOM
      1 CA         30.9829   19.9700   -2.9369 C.3       0 UNK        -0.1979 
      2 C          30.5764   21.3915   -2.5792 C.2       0 UNK         0.4864 
      3 O          30.7833   22.3087   -3.3766 O.2       0 UNK        -0.5359 
      4 N          29.9907   21.5867   -1.3903 N.am      1 UNK        -0.4318 
      5 CA         29.5411   22.8803   -0.8603 C.3       1 UNK         0.0824 
      6 C6         29.4589   22.8721    0.6888 C.3       12 UNK        -0.0944 
      7 S7         31.0754   22.5154    1.4591 S.3       12 UNK        -0.2672 
      8 C8         31.5858   24.1742    2.0324 C.3       12 UNK         0.0333 
      9 C9         31.0027   24.6300    3.3736 C.ar      12 UNK        -0.0807 
     10 C10        31.5887   25.7328    4.0047 C.ar      12 UNK        -0.0894 
     11 C11        31.1109   26.1956    5.2338 C.ar      12 UNK        -0.0804 
     12 C12        30.0226   25.5568    5.8328 C.ar      12 UNK        -0.0824 
     13 C13        29.4230   24.4540    5.2193 C.ar      12 UNK        -0.0762 
     14 C14        29.9178   23.9939    3.9950 C.ar      12 UNK        -0.0782 
     15 C15        28.2465   23.7519    5.8847 C.3       12 UNK         0.0230 
     16 S16        26.6960   23.9644    4.9518 S.3       12 UNK        -0.2608 
     17 C17        26.4812   25.7783    4.9840 C.3       12 UNK        -0.0989 
     18 CA         26.9342   26.4477    3.6554 C.3       5 UNK         0.0716 
     19 N          26.2856   25.9021    2.4552 N.am      5 UNK        -0.4135 
     20 C          24.9731   25.8606    2.1887 C.2       4 UNK         0.5031 
     21 O          24.1003   26.3235    2.9249 O.2       4 UNK        -0.5229 
     22 CA         24.5998   25.2145    0.8407 C.3       4 UNK         0.0329 
     23 CB         23.1003   25.3442    0.4971 C.3       4 UNK        -0.2001 
     24 N          25.4387   25.7083   -0.2605 N.am      4 UNK        -0.4303 
     25 C          25.5383   26.9777   -0.6917 C.2       3 UNK         0.5044 
     26 O          24.9159   27.9123   -0.1903 O.2       3 UNK        -0.5152 
     27 CA         26.5241   27.2882   -1.8377 C.3       3 UNK         0.0319 
     28 CB         27.6846   28.1518   -1.3141 C.3       3 UNK        -0.2001 
     29 N          27.0810   26.0992   -2.4863 N.am      3 UNK        -0.4354 
     30 C          26.4022   25.2492   -3.2699 C.2       2 UNK         0.4964 
     31 O          25.2410   25.4354   -3.6343 O.2       2 UNK        -0.5047 
     32 CA         27.1244   23.9538   -3.6899 C.3       2 UNK         0.0288 
     33 CB         27.6134   24.0584   -5.1437 C.3       2 UNK        -0.2113 
     34 N          28.2548   23.5661   -2.8342 N.am      2 UNK        -0.4145 
     35 C          28.2116   23.3133   -1.5176 C.2       1 UNK         0.5006 
     36 O          27.1869   23.4203   -0.8393 O.2       1 UNK        -0.5103 
     37 C          26.9170   27.9923    3.7317 C.2       5 UNK         0.5055 
     38 O          27.3502   28.5442    4.7438 O.2       5 UNK        -0.5220 
     39 N          26.4990   28.6772    2.6550 N.am      6 UNK        -0.4450 
     40 CA         26.5880   30.1357    2.5044 C.3       6 UNK         0.0367 
     41 CB         25.4308   30.6288    1.6190 C.3       6 UNK        -0.1929 
     42 C          27.9501   30.5964    1.9434 C.2       6 UNK         0.5070 
     43 O          28.0910   31.7663    1.5832 O.2       6 UNK        -0.5237 
     44 N          28.9293   29.6838    1.8603 N.am      7 UNK        -0.4739 
     45 CA         30.2990   29.9162    1.3988 C.3       7 UNK         0.0276 
     46 CB         30.9562   28.5556    1.0917 C.3       7 UNK        -0.1927 
     47 C          31.1151   30.7340    2.4183 C.2       7 UNK         0.5013 
     48 O          32.0246   30.1977    3.0500 O.2       7 UNK        -0.5193 
     49 N          30.7800   32.0235    2.5551 N.am      8 UNK        -0.4253 
     50 CA         31.3700   32.9827    3.4997 C.3       8 UNK         0.0242 
     51 CB         30.6039   34.3121    3.3981 C.3       8 UNK        -0.2000 
     52 C          32.8864   33.2207    3.3463 C.2       8 UNK         0.4948 
     53 O          33.5069   33.7431    4.2730 O.2       8 UNK        -0.5275 
     54 N          33.4599   32.8347    2.1980 N.am      9 UNK        -0.4246 
     55 CA         34.9035   32.8046    1.9525 C.3       9 UNK         0.0261 
     56 CB         35.1509   32.6839    0.4397 C.3       9 UNK        -0.1959 
     57 C          35.6273   31.6704    2.7076 C.2       9 UNK         0.5033 
     58 O          36.8415   31.7642    2.8961 O.2       9 UNK        -0.5390 
     59 N          34.8912   30.6276    3.1138 N.am      10 UNK        -0.4215 
     60 CA         35.3735   29.5054    3.9155 C.3       10 UNK         0.0240 
     61 CB         34.8611   28.1999    3.2795 C.3       10 UNK        -0.1982 
     62 C          34.8751   29.6458    5.3632 C.2       10 UNK         0.4970 
     63 O          34.0508   30.5146    5.6567 O.2       10 UNK        -0.4916 
     64 N          35.3854   28.7730    6.2410 N.am      11 UNK        -0.4279 
     65 CA         35.0377   28.6830    7.6725 C.3       11 UNK         0.1003 
     66 C          35.5217   29.8867    8.5399 C.2       11 UNK         0.5709 
     67 N          36.4427   30.7171    8.0648 N.am      11 UNK        -0.7358 
     68 O          35.0871   30.0537    9.6775 O.2       11 UNK        -0.4999 
     69 C69        33.5409   28.3274    7.9220 C.3       12 UNK        -0.0954 
     70 S70        33.0322   26.7743    7.1113 S.3       12 UNK        -0.2268 
     71 C71        31.7818   27.3687    5.9307 C.3       12 UNK         0.0203 
     72 H72        30.7438   19.2652   -2.1406 H         1 UNK         0.0888 
     73 H73        30.4668   19.6487   -3.8412 H         1 UNK         0.0888 
     74 H74        32.0558   19.9224   -3.1208 H         1 UNK         0.0888 
     75 H75        29.8381   20.7960   -0.7804 H         1 UNK         0.3017 
     76 H76        30.2803   23.6358   -1.1367 H         1 UNK         0.0873 
     77 H77        28.7443   22.1216    1.0322 H         1 UNK         0.0745 
     78 H78        29.0916   23.8307    1.0604 H         1 UNK         0.0745 
     79 H79        32.6739   24.1662    2.1130 H         1 UNK         0.0705 
     80 H80        31.3433   24.9121    1.2663 H         1 UNK         0.0705 
     81 H81        32.4329   26.2259    3.5434 H         1 UNK         0.1334 
     82 H82        29.6531   25.9129    6.7849 H         1 UNK         0.1417 
     83 H83        29.4412   23.1394    3.5371 H         1 UNK         0.1562 
     84 H84        28.1020   24.1111    6.9049 H         1 UNK         0.0748 
     85 H85        28.4658   22.6863    5.9656 H         1 UNK         0.0748 
     86 H86        27.0369   26.1815    5.8325 H         1 UNK         0.0940 
     87 H87        25.4325   25.9986    5.1888 H         1 UNK         0.0940 
     88 H88        27.9898   26.2072    3.5259 H         1 UNK         0.0703 
     89 H89        26.9091   25.4869    1.7785 H         1 UNK         0.3081 
     90 H90        24.8220   24.1508    0.9408 H         1 UNK         0.0719 
     91 H91        22.8685   24.8605   -0.4518 H         1 UNK         0.0809 
     92 H92        22.7866   26.3862    0.4279 H         1 UNK         0.0809 
     93 H93        22.4834   24.8706    1.2618 H         1 UNK         0.0809 
     94 H94        26.0216   25.0024   -0.7018 H         1 UNK         0.2990 
     95 H95        25.9781   27.8621   -2.5893 H         1 UNK         0.0690 
     96 H96        28.3800   28.4138   -2.1117 H         1 UNK         0.0788 
     97 H97        28.2443   27.6380   -0.5325 H         1 UNK         0.0788 
     98 H98        27.3182   29.0877   -0.8899 H         1 UNK         0.0788 
     99 H99        28.0385   25.8708   -2.2646 H         1 UNK         0.2993 
    100 H100       26.3872   23.1501   -3.6327 H         1 UNK         0.0949 
    101 H101       26.7926   24.3114   -5.8167 H         1 UNK         0.0767 
    102 H102       28.3780   24.8281   -5.2567 H         1 UNK         0.0767 
    103 H103       28.0340   23.1139   -5.4899 H         1 UNK         0.0767 
    104 H104       29.1415   23.3918   -3.3003 H         1 UNK         0.3013 
    105 H105       26.1206   28.1691    1.8660 H         1 UNK         0.3121 
    106 H106       26.4737   30.6022    3.4851 H         1 UNK         0.0774 
    107 H107       25.3703   31.7178    1.6284 H         1 UNK         0.0815 
    108 H108       25.5580   30.3241    0.5803 H         1 UNK         0.0815 
    109 H109       24.4698   30.2489    1.9665 H         1 UNK         0.0815 
    110 H110       28.7324   28.7615    2.2161 H         1 UNK         0.2987 
    111 H111       30.2620   30.4895    0.4697 H         1 UNK         0.0949 
    112 H112       30.9766   27.9087    1.9697 H         1 UNK         0.0806 
    113 H113       30.4321   28.0271    0.2967 H         1 UNK         0.0806 
    114 H114       31.9878   28.6857    0.7613 H         1 UNK         0.0806 
    115 H115       29.9622   32.3364    2.0403 H         1 UNK         0.3010 
    116 H116       31.2195   32.5765    4.5021 H         1 UNK         0.0829 
    117 H117       29.5430   34.1767    3.6103 H         1 UNK         0.0813 
    118 H118       30.9850   35.0407    4.1153 H         1 UNK         0.0813 
    119 H119       30.6945   34.7536    2.4049 H         1 UNK         0.0813 
    120 H120       32.8670   32.4400    1.4829 H         1 UNK         0.3038 
    121 H121       35.3295   33.7502    2.2950 H         1 UNK         0.0769 
    122 H122       36.2191   32.6918    0.2178 H         1 UNK         0.0811 
    123 H123       34.7034   33.5160   -0.1042 H         1 UNK         0.0811 
    124 H124       34.7417   31.7571    0.0355 H         1 UNK         0.0811 
    125 H125       33.8794   30.6642    3.0091 H         1 UNK         0.3204 
    126 H126       36.4651   29.4853    3.9307 H         1 UNK         0.0748 
    127 H127       35.1922   27.3232    3.8372 H         1 UNK         0.0771 
    128 H128       33.7721   28.1723    3.2433 H         1 UNK         0.0771 
    129 H129       35.2281   28.0896    2.2590 H         1 UNK         0.0771 
    130 H130       36.0665   28.1006    5.9200 H         1 UNK         0.2980 
    131 H131       35.6230   27.8428    8.0472 H         1 UNK         0.0545 
    132 H132       36.8178   30.5904    7.1389 H         1 UNK         0.3459 
    133 H133       36.7574   31.4839    8.6380 H         1 UNK         0.3459 
    134 H134       33.3552   28.1957    8.9892 H         1 UNK         0.0616 
    135 H135       32.8902   29.1441    7.6065 H         1 UNK         0.0616 
    136 H136       32.2486   28.0332    5.2022 H         1 UNK         0.0634 
    137 H137       31.0341   27.9633    6.4580 H         1 UNK         0.0634 
@<TRIPOS>BOND
     1    1    2 1    
     2    1   72 1    
     3    1   73 1    
     4    1   74 1    
     5    2    3 2    
     6    2    4 am   BACKBONE|DICT|INTERRES
     7    4    5 1    
     8    4   75 1    
     9    5    6 1    
    10    5   35 1    
    11    5   76 1    
    12    6    7 1    
    13    6   77 1    
    14    6   78 1    
    15    7    8 1    
    16    8    9 1    
    17    8   79 1    
    18    8   80 1    
    19    9   10 ar   
    20    9   14 ar   
    21   10   11 ar   
    22   10   81 1    
    23   11   12 ar   
    24   11   71 1    
    25   12   13 ar   
    26   12   82 1    
    27   13   14 ar   
    28   13   15 1    
    29   14   83 1    
    30   15   16 1    
    31   15   84 1    
    32   15   85 1    
    33   16   17 1    
    34   17   18 1    
    35   17   86 1    
    36   17   87 1    
    37   18   19 1    
    38   18   37 1    
    39   18   88 1    
    40   19   20 am   BACKBONE|DICT|INTERRES
    41   19   89 1    
    42   20   21 2    
    43   20   22 1    
    44   22   23 1    
    45   22   24 1    
    46   22   90 1    
    47   23   91 1    
    48   23   92 1    
    49   23   93 1    
    50   24   25 am   BACKBONE|DICT|INTERRES
    51   24   94 1    
    52   25   26 2    
    53   25   27 1    
    54   27   28 1    
    55   27   29 1    
    56   27   95 1    
    57   28   96 1    
    58   28   97 1    
    59   28   98 1    
    60   29   30 am   BACKBONE|DICT|INTERRES
    61   29   99 1    
    62   30   31 2    
    63   30   32 1    
    64   32   33 1    
    65   32   34 1    
    66   32  100 1    
    67   33  101 1    
    68   33  102 1    
    69   33  103 1    
    70   34   35 am   BACKBONE|DICT|INTERRES
    71   34  104 1    
    72   35   36 2    
    73   37   38 2    
    74   37   39 am   BACKBONE|DICT|INTERRES
    75   39   40 1    
    76   39  105 1    
    77   40   41 1    
    78   40   42 1    
    79   40  106 1    
    80   41  107 1    
    81   41  108 1    
    82   41  109 1    
    83   42   43 2    
    84   42   44 am   BACKBONE|DICT|INTERRES
    85   44   45 1    
    86   44  110 1    
    87   45   46 1    
    88   45   47 1    
    89   45  111 1    
    90   46  112 1    
    91   46  113 1    
    92   46  114 1    
    93   47   48 2    
    94   47   49 am   BACKBONE|DICT|INTERRES
    95   49   50 1    
    96   49  115 1    
    97   50   51 1    
    98   50   52 1    
    99   50  116 1    
   100   51  117 1    
   101   51  118 1    
   102   51  119 1    
   103   52   53 2    
   104   52   54 am   BACKBONE|DICT|INTERRES
   105   54   55 1    
   106   54  120 1    
   107   55   56 1    
   108   55   57 1    
   109   55  121 1    
   110   56  122 1    
   111   56  123 1    
   112   56  124 1    
   113   57   58 2    
   114   57   59 am   BACKBONE|DICT|INTERRES
   115   59   60 1    
   116   59  125 1    
   117   60   61 1    
   118   60   62 1    
   119   60  126 1    
   120   61  127 1    
   121   61  128 1    
   122   61  129 1    
   123   62   63 2    
   124   62   64 am   BACKBONE|DICT|INTERRES
   125   64   65 1    
   126   64  130 1    
   127   65   66 1    
   128   65   69 1    
   129   65  131 1    
   130   66   67 am   BACKBONE|DICT|INTERRES
   131   66   68 2    
   132   67  132 1    
   133   67  133 1    
   134   69   70 1    
   135   69  134 1    
   136   69  135 1    
   137   70   71 1    
   138   71  136 1    
   139   71  137 1    
@<TRIPOS>SUBSTRUCTURE
     1 UNK         1 GROUP             0       ****    0 ROOT    
