@<TRIPOS>MOLECULE
3R136
137   139    1
SMALL
USER_CHARGES


@<TRIPOS>ATOM
      1 CA         30.4323   17.4506   -1.3063 C.3       0 UNK        -0.1979 
      2 C          29.9396   18.6818   -2.0528 C.2       0 UNK         0.4864 
      3 O          29.3059   18.5480   -3.1014 O.2       0 UNK        -0.5359 
      4 N          30.2345   19.8768   -1.5258 N.am      1 UNK        -0.4318 
      5 CA         29.7855   21.1671   -2.0585 C.3       1 UNK         0.0824 
      6 C6         30.7702   22.3074   -1.6848 C.3       12 UNK        -0.0944 
      7 S7         31.0208   22.5412    0.1089 S.3       12 UNK        -0.2672 
      8 C8         30.4053   24.2396    0.3165 C.3       12 UNK         0.0333 
      9 C9         30.4551   24.6655    1.7742 C.ar      12 UNK        -0.0807 
     10 C10        31.4904   25.4808    2.2388 C.ar      12 UNK        -0.0894 
     11 C11        31.5413   25.8827    3.5778 C.ar      12 UNK        -0.0804 
     12 C12        30.5274   25.4645    4.4516 C.ar      12 UNK        -0.0824 
     13 C13        29.4864   24.6462    3.9973 C.ar      12 UNK        -0.0762 
     14 C14        29.4580   24.2481    2.6580 C.ar      12 UNK        -0.0782 
     15 C15        28.3817   24.1981    4.9452 C.3       12 UNK         0.0230 
     16 S16        26.7729   24.9442    4.5212 S.3       12 UNK        -0.2608 
     17 C17        27.1228   26.7183    4.7581 C.3       12 UNK        -0.0989 
     18 CA         27.4943   27.4205    3.4279 C.3       5 UNK         0.0716 
     19 N          26.3842   27.4116    2.4754 N.am      5 UNK        -0.4135 
     20 C          26.4595   27.7577    1.1854 C.2       4 UNK         0.5031 
     21 O          27.4968   28.1307    0.6328 O.2       4 UNK        -0.5229 
     22 CA         25.1563   27.6137    0.3733 C.3       4 UNK         0.0329 
     23 CB         25.2562   28.2574   -1.0226 C.3       4 UNK        -0.2001 
     24 N          24.7869   26.2054    0.2170 N.am      4 UNK        -0.4303 
     25 C          24.2758   25.4168    1.1730 C.2       3 UNK         0.5044 
     26 O          23.9496   25.8348    2.2856 O.2       3 UNK        -0.5152 
     27 CA         24.0959   23.9179    0.8524 C.3       3 UNK         0.0319 
     28 CB         22.6048   23.5405    0.8544 C.3       3 UNK        -0.2001 
     29 N          24.6912   23.4853   -0.4187 N.am      3 UNK        -0.4354 
     30 C          26.0044   23.4096   -0.6768 C.2       2 UNK         0.4964 
     31 O          26.8790   23.7187    0.1330 O.2       2 UNK        -0.5047 
     32 CA         26.3765   22.9839   -2.1101 C.3       2 UNK         0.0288 
     33 CB         26.1286   24.1461   -3.0891 C.3       2 UNK        -0.2113 
     34 N          27.7657   22.5401   -2.2640 N.am      2 UNK        -0.4145 
     35 C          28.3150   21.4666   -1.6776 C.2       1 UNK         0.5006 
     36 O          27.7037   20.7241   -0.9022 O.2       1 UNK        -0.5103 
     37 C          28.0210   28.8412    3.6976 C.2       5 UNK         0.5055 
     38 O          27.2577   29.8089    3.6417 O.2       5 UNK        -0.5220 
     39 N          29.3206   28.9123    4.0206 N.am      6 UNK        -0.4450 
     40 CA         30.0971   30.1250    4.3027 C.3       6 UNK         0.0367 
     41 CB         29.6063   30.8277    5.5860 C.3       6 UNK        -0.1929 
     42 C          30.2064   31.0697    3.0919 C.2       6 UNK         0.5070 
     43 O          30.2184   32.2909    3.2590 O.2       6 UNK        -0.5237 
     44 N          30.3328   30.4843    1.8917 N.am      7 UNK        -0.4739 
     45 CA         30.6331   31.1857    0.6412 C.3       7 UNK         0.0276 
     46 CB         30.6705   30.1710   -0.5124 C.3       7 UNK        -0.1927 
     47 C          31.9692   31.9388    0.7511 C.2       7 UNK         0.5013 
     48 O          32.9594   31.3462    1.1860 O.2       7 UNK        -0.5193 
     49 N          31.9509   33.2426    0.4381 N.am      8 UNK        -0.4253 
     50 CA         33.0554   34.1997    0.6155 C.3       8 UNK         0.0242 
     51 CB         34.1921   33.9025   -0.3864 C.3       8 UNK        -0.2000 
     52 C          33.5672   34.3021    2.0722 C.2       8 UNK         0.4948 
     53 O          34.7260   34.6625    2.2839 O.2       8 UNK        -0.5275 
     54 N          32.7028   33.9629    3.0438 N.am      9 UNK        -0.4246 
     55 CA         32.9595   33.8614    4.4848 C.3       9 UNK         0.0261 
     56 CB         33.3351   35.2335    5.0848 C.3       9 UNK        -0.1959 
     57 C          33.9588   32.7517    4.8747 C.2       9 UNK         0.5033 
     58 O          34.4682   32.7819    5.9965 O.2       9 UNK        -0.5390 
     59 N          34.1993   31.7688    3.9887 N.am      10 UNK        -0.4215 
     60 CA         35.1783   30.6854    4.1734 C.3       10 UNK         0.0240 
     61 CB         35.2436   29.8355    2.8942 C.3       10 UNK        -0.1982 
     62 C          34.9329   29.7806    5.3964 C.2       10 UNK         0.4970 
     63 O          35.8901   29.2103    5.9210 O.2       10 UNK        -0.4916 
     64 N          33.6699   29.6818    5.8230 N.am      11 UNK        -0.4279 
     65 CA         33.2169   28.9715    7.0289 C.3       11 UNK         0.1003 
     66 C          32.5256   29.9328    8.0408 C.2       11 UNK         0.5709 
     67 N          32.7154   31.2453    7.9467 N.am      11 UNK        -0.7358 
     68 O          31.8122   29.4880    8.9365 O.2       11 UNK        -0.4999 
     69 C69        32.3420   27.7344    6.6758 C.3       12 UNK        -0.0954 
     70 S70        33.2695   26.4739    5.7357 S.3       12 UNK        -0.2268 
     71 C71        32.6970   26.7765    4.0303 C.3       12 UNK         0.0203 
     72 H72        31.0836   16.8577   -1.9480 H         1 UNK         0.0888 
     73 H73        30.9906   17.7149   -0.4083 H         1 UNK         0.0888 
     74 H74        29.5876   16.8295   -1.0095 H         1 UNK         0.0888 
     75 H75        30.7278   19.9285   -0.6457 H         1 UNK         0.3017 
     76 H76        29.7985   21.0900   -3.1482 H         1 UNK         0.0873 
     77 H77        31.7469   22.0886   -2.1195 H         1 UNK         0.0745 
     78 H78        30.4644   23.2487   -2.1443 H         1 UNK         0.0745 
     79 H79        31.0003   24.9165   -0.2986 H         1 UNK         0.0705 
     80 H80        29.3825   24.3083   -0.0534 H         1 UNK         0.0705 
     81 H81        32.2631   25.8007    1.5526 H         1 UNK         0.1334 
     82 H82        30.5461   25.7682    5.4887 H         1 UNK         0.1417 
     83 H83        28.6508   23.6230    2.2978 H         1 UNK         0.1562 
     84 H84        28.6302   24.4392    5.9800 H         1 UNK         0.0748 
     85 H85        28.2897   23.1121    4.8985 H         1 UNK         0.0748 
     86 H86        27.9197   26.8198    5.4976 H         1 UNK         0.0940 
     87 H87        26.2432   27.1870    5.2038 H         1 UNK         0.0940 
     88 H88        28.3046   26.8676    2.9512 H         1 UNK         0.0703 
     89 H89        25.5009   27.0457    2.8136 H         1 UNK         0.3081 
     90 H90        24.3650   28.1278    0.9233 H         1 UNK         0.0719 
     91 H91        26.0158   27.7742   -1.6386 H         1 UNK         0.0809 
     92 H92        24.3065   28.2009   -1.5547 H         1 UNK         0.0809 
     93 H93        25.5215   29.3127   -0.9463 H         1 UNK         0.0809 
     94 H94        25.0490   25.7689   -0.6536 H         1 UNK         0.2990 
     95 H95        24.5880   23.3649    1.6555 H         1 UNK         0.0690 
     96 H96        22.4656   22.4681    0.7155 H         1 UNK         0.0788 
     97 H97        22.0566   24.0573    0.0656 H         1 UNK         0.0788 
     98 H98        22.1349   23.8038    1.8033 H         1 UNK         0.0788 
     99 H99        24.0407   23.2337   -1.1498 H         1 UNK         0.2993 
    100 H100       25.7340   22.1451   -2.3872 H         1 UNK         0.0949 
    101 H101       26.3390   23.8504   -4.1174 H         1 UNK         0.0767 
    102 H102       25.0897   24.4773   -3.0617 H         1 UNK         0.0767 
    103 H103       26.7526   25.0100   -2.8547 H         1 UNK         0.0767 
    104 H104       28.3414   23.1016   -2.8733 H         1 UNK         0.3013 
    105 H105       29.8444   28.0482    4.0304 H         1 UNK         0.3121 
    106 H106       31.1155   29.7899    4.4918 H         1 UNK         0.0774 
    107 H107       28.6127   31.2579    5.4578 H         1 UNK         0.0815 
    108 H108       30.2756   31.6414    5.8682 H         1 UNK         0.0815 
    109 H109       29.5673   30.1370    6.4283 H         1 UNK         0.0815 
    110 H110       30.3043   29.4768    1.8426 H         1 UNK         0.2987 
    111 H111       29.8270   31.8986    0.4555 H         1 UNK         0.0949 
    112 H112       31.4531   29.4247   -0.3684 H         1 UNK         0.0806 
    113 H113       29.7197   29.6458   -0.6102 H         1 UNK         0.0806 
    114 H114       30.8654   30.6685   -1.4634 H         1 UNK         0.0806 
    115 H115       31.0810   33.6425    0.1123 H         1 UNK         0.3010 
    116 H116       32.6500   35.1831    0.3728 H         1 UNK         0.0829 
    117 H117       34.6937   32.9607   -0.1610 H         1 UNK         0.0813 
    118 H118       33.8167   33.8463   -1.4081 H         1 UNK         0.0813 
    119 H119       34.9499   34.6866   -0.3652 H         1 UNK         0.0813 
    120 H120       31.7788   33.6466    2.7665 H         1 UNK         0.3038 
    121 H121       32.0092   33.5659    4.9314 H         1 UNK         0.0769 
    122 H122       33.3561   35.1919    6.1745 H         1 UNK         0.0811 
    123 H123       34.3204   35.5649    4.7562 H         1 UNK         0.0811 
    124 H124       32.6120   36.0001    4.8067 H         1 UNK         0.0811 
    125 H125       33.7427   31.8059    3.0820 H         1 UNK         0.3204 
    126 H126       36.1527   31.1565    4.3173 H         1 UNK         0.0748 
    127 H127       35.9827   29.0385    2.9883 H         1 UNK         0.0771 
    128 H128       34.2840   29.3666    2.6724 H         1 UNK         0.0771 
    129 H129       35.5274   30.4386    2.0314 H         1 UNK         0.0771 
    130 H130       32.9709   30.2315    5.3508 H         1 UNK         0.2980 
    131 H131       34.0869   28.6022    7.5743 H         1 UNK         0.0545 
    132 H132       32.2651   31.8480    8.6166 H         1 UNK         0.3459 
    133 H133       33.3651   31.6398    7.2762 H         1 UNK         0.3459 
    134 H134       31.9898   27.2447    7.5853 H         1 UNK         0.0616 
    135 H135       31.4462   28.0308    6.1299 H         1 UNK         0.0616 
    136 H136       32.4190   27.8225    3.9059 H         1 UNK         0.0634 
    137 H137       33.5564   26.6169    3.3772 H         1 UNK         0.0634 
@<TRIPOS>BOND
     1    1    2 1    
     2    1   72 1    
     3    1   73 1    
     4    1   74 1    
     5    2    3 2    
     6    2    4 am   BACKBONE|DICT|INTERRES
     7    4    5 1    
     8    4   75 1    
     9    5    6 1    
    10    5   35 1    
    11    5   76 1    
    12    6    7 1    
    13    6   77 1    
    14    6   78 1    
    15    7    8 1    
    16    8    9 1    
    17    8   79 1    
    18    8   80 1    
    19    9   10 ar   
    20    9   14 ar   
    21   10   11 ar   
    22   10   81 1    
    23   11   12 ar   
    24   11   71 1    
    25   12   13 ar   
    26   12   82 1    
    27   13   14 ar   
    28   13   15 1    
    29   14   83 1    
    30   15   16 1    
    31   15   84 1    
    32   15   85 1    
    33   16   17 1    
    34   17   18 1    
    35   17   86 1    
    36   17   87 1    
    37   18   19 1    
    38   18   37 1    
    39   18   88 1    
    40   19   20 am   BACKBONE|DICT|INTERRES
    41   19   89 1    
    42   20   21 2    
    43   20   22 1    
    44   22   23 1    
    45   22   24 1    
    46   22   90 1    
    47   23   91 1    
    48   23   92 1    
    49   23   93 1    
    50   24   25 am   BACKBONE|DICT|INTERRES
    51   24   94 1    
    52   25   26 2    
    53   25   27 1    
    54   27   28 1    
    55   27   29 1    
    56   27   95 1    
    57   28   96 1    
    58   28   97 1    
    59   28   98 1    
    60   29   30 am   BACKBONE|DICT|INTERRES
    61   29   99 1    
    62   30   31 2    
    63   30   32 1    
    64   32   33 1    
    65   32   34 1    
    66   32  100 1    
    67   33  101 1    
    68   33  102 1    
    69   33  103 1    
    70   34   35 am   BACKBONE|DICT|INTERRES
    71   34  104 1    
    72   35   36 2    
    73   37   38 2    
    74   37   39 am   BACKBONE|DICT|INTERRES
    75   39   40 1    
    76   39  105 1    
    77   40   41 1    
    78   40   42 1    
    79   40  106 1    
    80   41  107 1    
    81   41  108 1    
    82   41  109 1    
    83   42   43 2    
    84   42   44 am   BACKBONE|DICT|INTERRES
    85   44   45 1    
    86   44  110 1    
    87   45   46 1    
    88   45   47 1    
    89   45  111 1    
    90   46  112 1    
    91   46  113 1    
    92   46  114 1    
    93   47   48 2    
    94   47   49 am   BACKBONE|DICT|INTERRES
    95   49   50 1    
    96   49  115 1    
    97   50   51 1    
    98   50   52 1    
    99   50  116 1    
   100   51  117 1    
   101   51  118 1    
   102   51  119 1    
   103   52   53 2    
   104   52   54 am   BACKBONE|DICT|INTERRES
   105   54   55 1    
   106   54  120 1    
   107   55   56 1    
   108   55   57 1    
   109   55  121 1    
   110   56  122 1    
   111   56  123 1    
   112   56  124 1    
   113   57   58 2    
   114   57   59 am   BACKBONE|DICT|INTERRES
   115   59   60 1    
   116   59  125 1    
   117   60   61 1    
   118   60   62 1    
   119   60  126 1    
   120   61  127 1    
   121   61  128 1    
   122   61  129 1    
   123   62   63 2    
   124   62   64 am   BACKBONE|DICT|INTERRES
   125   64   65 1    
   126   64  130 1    
   127   65   66 1    
   128   65   69 1    
   129   65  131 1    
   130   66   67 am   BACKBONE|DICT|INTERRES
   131   66   68 2    
   132   67  132 1    
   133   67  133 1    
   134   69   70 1    
   135   69  134 1    
   136   69  135 1    
   137   70   71 1    
   138   71  136 1    
   139   71  137 1    
@<TRIPOS>SUBSTRUCTURE
     1 UNK         1 GROUP             0       ****    0 ROOT    
