@<TRIPOS>MOLECULE
3R136
137   139    1
SMALL
USER_CHARGES


@<TRIPOS>ATOM
      1 CA         29.0216   22.9604    1.3369 C.3       0 UNK        -0.1979 
      2 C          28.4872   24.3544    1.6205 C.2       0 UNK         0.4864 
      3 O          28.3147   25.1397    0.6856 O.2       0 UNK        -0.5359 
      4 N          28.2029   24.6603    2.8937 N.am      1 UNK        -0.4318 
      5 CA         27.8288   25.9731    3.4506 C.3       1 UNK         0.0824 
      6 C6         28.0064   26.0110    4.9963 C.3       12 UNK        -0.0944 
      7 S7         29.4995   25.1819    5.6597 S.3       12 UNK        -0.2672 
      8 C8         30.8375   26.3831    5.3689 C.3       12 UNK         0.0333 
      9 C9         31.7486   25.9145    4.2456 C.ar      12 UNK        -0.0807 
     10 C10        32.8497   25.0967    4.5123 C.ar      12 UNK        -0.0894 
     11 C11        33.6532   24.6285    3.4671 C.ar      12 UNK        -0.0804 
     12 C12        33.3458   24.9847    2.1490 C.ar      12 UNK        -0.0824 
     13 C13        32.2526   25.8117    1.8706 C.ar      12 UNK        -0.0762 
     14 C14        31.4723   26.2806    2.9296 C.ar      12 UNK        -0.0782 
     15 C15        31.8808   26.1323    0.4270 C.3       12 UNK         0.0230 
     16 S16        31.8557   27.9169    0.0546 S.3       12 UNK        -0.2608 
     17 C17        30.1114   28.3768    0.3532 C.3       12 UNK        -0.0989 
     18 CA         29.2570   28.3257   -0.9340 C.3       5 UNK         0.0716 
     19 N          29.0500   26.9471   -1.3743 N.am      5 UNK        -0.4135 
     20 C          28.9614   26.5486   -2.6466 C.2       4 UNK         0.5031 
     21 O          29.1367   27.2880   -3.6163 O.2       4 UNK        -0.5229 
     22 CA         28.5996   25.0765   -2.8770 C.3       4 UNK         0.0329 
     23 CB         29.7858   24.1575   -2.5360 C.3       4 UNK        -0.2001 
     24 N          27.4356   24.6887   -2.0757 N.am      4 UNK        -0.4303 
     25 C          26.2651   24.2780   -2.5822 C.2       3 UNK         0.5044 
     26 O          26.0234   24.2073   -3.7881 O.2       3 UNK        -0.5152 
     27 CA         25.1791   23.8390   -1.5850 C.3       3 UNK         0.0319 
     28 CB         25.3375   22.3473   -1.2479 C.3       3 UNK        -0.2001 
     29 N          25.1726   24.6137   -0.3432 N.am      3 UNK        -0.4354 
     30 C          24.6552   25.8460   -0.2171 C.2       2 UNK         0.4964 
     31 O          24.1303   26.4674   -1.1414 O.2       2 UNK        -0.5047 
     32 CA         24.7122   26.4746    1.1832 C.3       2 UNK         0.0288 
     33 CB         23.4873   26.0274    2.0089 C.3       2 UNK        -0.2113 
     34 N          25.9714   26.1121    1.8352 N.am      2 UNK        -0.4145 
     35 C          26.4311   26.5019    3.0268 C.2       1 UNK         0.5006 
     36 O          25.8028   27.2432    3.7855 O.2       1 UNK        -0.5103 
     37 C          27.8791   28.9630   -0.6868 C.2       5 UNK         0.5055 
     38 O          26.9138   28.2509   -0.4075 O.2       5 UNK        -0.5220 
     39 N          27.8125   30.2975   -0.7641 N.am      6 UNK        -0.4450 
     40 CA         26.5802   31.0669   -0.5624 C.3       6 UNK         0.0367 
     41 CB         26.7984   32.5056   -1.0596 C.3       6 UNK        -0.1929 
     42 C          26.0721   31.0769    0.8923 C.2       6 UNK         0.5070 
     43 O          24.8801   31.3023    1.1048 O.2       6 UNK        -0.5237 
     44 N          26.9694   30.8594    1.8615 N.am      7 UNK        -0.4739 
     45 CA         26.6952   30.8862    3.2966 C.3       7 UNK         0.0276 
     46 CB         26.4972   32.3456    3.7706 C.3       7 UNK        -0.1927 
     47 C          27.8304   30.1709    4.0481 C.2       7 UNK         0.5013 
     48 O          28.6110   29.4343    3.4348 O.2       7 UNK        -0.5193 
     49 N          27.9084   30.4141    5.3640 N.am      8 UNK        -0.4253 
     50 CA         28.9203   29.9131    6.2972 C.3       8 UNK         0.0242 
     51 CB         28.4208   30.1386    7.7365 C.3       8 UNK        -0.2000 
     52 C          30.3156   30.5232    6.0543 C.2       8 UNK         0.4948 
     53 O          30.8107   31.2917    6.8816 O.2       8 UNK        -0.5275 
     54 N          30.9145   30.1757    4.9102 N.am      9 UNK        -0.4246 
     55 CA         32.2810   30.5188    4.5193 C.3       9 UNK         0.0261 
     56 CB         32.4857   30.1135    3.0501 C.3       9 UNK        -0.1959 
     57 C          33.3344   29.8393    5.4134 C.2       9 UNK         0.5033 
     58 O          33.0626   28.8027    6.0227 O.2       9 UNK        -0.5390 
     59 N          34.5407   30.4186    5.4350 N.am      10 UNK        -0.4215 
     60 CA         35.6903   29.9354    6.2087 C.3       10 UNK         0.0240 
     61 CB         36.6773   31.1010    6.4002 C.3       10 UNK        -0.1982 
     62 C          36.4058   28.7125    5.5966 C.2       10 UNK         0.4970 
     63 O          37.3474   28.2126    6.2136 O.2       10 UNK        -0.4916 
     64 N          35.9812   28.2698    4.4039 N.am      11 UNK        -0.4279 
     65 CA         36.5922   27.1867    3.6128 C.3       11 UNK         0.1003 
     66 C          37.9700   27.5614    2.9776 C.2       11 UNK         0.5709 
     67 N          38.3258   28.8379    2.8828 N.am      11 UNK        -0.7358 
     68 O          38.7228   26.6956    2.5381 O.2       11 UNK        -0.4999 
     69 C69        36.5999   25.8235    4.3701 C.3       12 UNK        -0.0954 
     70 S70        36.4251   24.3915    3.2514 S.3       12 UNK        -0.2268 
     71 C71        34.8211   23.6955    3.7589 C.3       12 UNK         0.0203 
     72 H72        28.4416   22.4858    0.5465 H         1 UNK         0.0888 
     73 H73        30.0588   23.0218    1.0088 H         1 UNK         0.0888 
     74 H74        28.9815   22.3218    2.2191 H         1 UNK         0.0888 
     75 H75        28.3579   23.9538    3.5994 H         1 UNK         0.3017 
     76 H76        28.5206   26.7006    3.0316 H         1 UNK         0.0873 
     77 H77        27.1555   25.5205    5.4732 H         1 UNK         0.0745 
     78 H78        27.9834   27.0398    5.3533 H         1 UNK         0.0745 
     79 H79        31.4127   26.5080    6.2876 H         1 UNK         0.0705 
     80 H80        30.4257   27.3621    5.1300 H         1 UNK         0.0705 
     81 H81        33.0663   24.8096    5.5321 H         1 UNK         0.1334 
     82 H82        33.9545   24.6026    1.3408 H         1 UNK         0.1417 
     83 H83        30.6343   26.9241    2.7414 H         1 UNK         0.1562 
     84 H84        30.9124   25.6894    0.2032 H         1 UNK         0.0748 
     85 H85        32.5882   25.6614   -0.2572 H         1 UNK         0.0748 
     86 H86        30.1207   29.3836    0.7750 H         1 UNK         0.0940 
     87 H87        29.6576   27.7421    1.1107 H         1 UNK         0.0940 
     88 H88        29.7620   28.8948   -1.7177 H         1 UNK         0.0703 
     89 H89        28.8179   26.2878   -0.6360 H         1 UNK         0.3081 
     90 H90        28.3888   24.9620   -3.9424 H         1 UNK         0.0719 
     91 H91        30.6818   24.4545   -3.0827 H         1 UNK         0.0809 
     92 H92        30.0275   24.1783   -1.4735 H         1 UNK         0.0809 
     93 H93        29.5700   23.1236   -2.8055 H         1 UNK         0.0809 
     94 H94        27.5392   24.7536   -1.0689 H         1 UNK         0.2990 
     95 H95        24.2115   23.9695   -2.0752 H         1 UNK         0.0690 
     96 H96        24.5277   21.9967   -0.6075 H         1 UNK         0.0788 
     97 H97        26.2808   22.1428   -0.7406 H         1 UNK         0.0788 
     98 H98        25.3173   21.7392   -2.1535 H         1 UNK         0.0788 
     99 H99        25.5208   24.1485    0.4816 H         1 UNK         0.2993 
    100 H100       24.6919   27.5602    1.0656 H         1 UNK         0.0949 
    101 H101       23.5222   24.9616    2.2373 H         1 UNK         0.0767 
    102 H102       23.4140   26.5697    2.9511 H         1 UNK         0.0767 
    103 H103       22.5606   26.2154    1.4647 H         1 UNK         0.0767 
    104 H104       26.6504   25.6385    1.2447 H         1 UNK         0.3013 
    105 H105       28.6448   30.8224   -0.9935 H         1 UNK         0.3121 
    106 H106       25.7966   30.6126   -1.1733 H         1 UNK         0.0774 
    107 H107       25.8879   33.0971   -0.9529 H         1 UNK         0.0815 
    108 H108       27.5830   33.0131   -0.4969 H         1 UNK         0.0815 
    109 H109       27.0721   32.5254   -2.1147 H         1 UNK         0.0815 
    110 H110       27.9164   30.6028    1.6171 H         1 UNK         0.2987 
    111 H111       25.7818   30.3168    3.4839 H         1 UNK         0.0949 
    112 H112       25.7290   32.8572    3.1909 H         1 UNK         0.0806 
    113 H113       26.1759   32.3938    4.8113 H         1 UNK         0.0806 
    114 H114       27.4174   32.9245    3.6799 H         1 UNK         0.0806 
    115 H115       27.2328   31.0516    5.7592 H         1 UNK         0.3010 
    116 H116       29.0154   28.8382    6.1565 H         1 UNK         0.0829 
    117 H117       27.4772   29.6226    7.9151 H         1 UNK         0.0813 
    118 H118       29.1387   29.7552    8.4629 H         1 UNK         0.0813 
    119 H119       28.2720   31.1973    7.9531 H         1 UNK         0.0813 
    120 H120       30.3765   29.6125    4.2596 H         1 UNK         0.3038 
    121 H121       32.3926   31.6014    4.6089 H         1 UNK         0.0769 
    122 H122       33.4685   30.4158    2.6869 H         1 UNK         0.0811 
    123 H123       31.7470   30.5839    2.4009 H         1 UNK         0.0811 
    124 H124       32.4081   29.0340    2.9170 H         1 UNK         0.0811 
    125 H125       34.6843   31.2616    4.8964 H         1 UNK         0.3204 
    126 H126       35.3340   29.6302    7.1951 H         1 UNK         0.0748 
    127 H127       37.5241   30.8023    7.0199 H         1 UNK         0.0771 
    128 H128       37.0787   31.4523    5.4488 H         1 UNK         0.0771 
    129 H129       36.2015   31.9465    6.8976 H         1 UNK         0.0771 
    130 H130       35.1983   28.7370    3.9734 H         1 UNK         0.2980 
    131 H131       35.9195   27.0807    2.7609 H         1 UNK         0.0545 
    132 H132       39.2124   29.0706    2.4638 H         1 UNK         0.3459 
    133 H133       37.7220   29.5671    3.2246 H         1 UNK         0.3459 
    134 H134       37.5129   25.7053    4.9562 H         1 UNK         0.0616 
    135 H135       35.7837   25.7905    5.0931 H         1 UNK         0.0616 
    136 H136       34.8652   23.4405    4.8190 H         1 UNK         0.0634 
    137 H137       34.6635   22.7573    3.2253 H         1 UNK         0.0634 
@<TRIPOS>BOND
     1    1    2 1    
     2    1   72 1    
     3    1   73 1    
     4    1   74 1    
     5    2    3 2    
     6    2    4 am   BACKBONE|DICT|INTERRES
     7    4    5 1    
     8    4   75 1    
     9    5    6 1    
    10    5   35 1    
    11    5   76 1    
    12    6    7 1    
    13    6   77 1    
    14    6   78 1    
    15    7    8 1    
    16    8    9 1    
    17    8   79 1    
    18    8   80 1    
    19    9   10 ar   
    20    9   14 ar   
    21   10   11 ar   
    22   10   81 1    
    23   11   12 ar   
    24   11   71 1    
    25   12   13 ar   
    26   12   82 1    
    27   13   14 ar   
    28   13   15 1    
    29   14   83 1    
    30   15   16 1    
    31   15   84 1    
    32   15   85 1    
    33   16   17 1    
    34   17   18 1    
    35   17   86 1    
    36   17   87 1    
    37   18   19 1    
    38   18   37 1    
    39   18   88 1    
    40   19   20 am   BACKBONE|DICT|INTERRES
    41   19   89 1    
    42   20   21 2    
    43   20   22 1    
    44   22   23 1    
    45   22   24 1    
    46   22   90 1    
    47   23   91 1    
    48   23   92 1    
    49   23   93 1    
    50   24   25 am   BACKBONE|DICT|INTERRES
    51   24   94 1    
    52   25   26 2    
    53   25   27 1    
    54   27   28 1    
    55   27   29 1    
    56   27   95 1    
    57   28   96 1    
    58   28   97 1    
    59   28   98 1    
    60   29   30 am   BACKBONE|DICT|INTERRES
    61   29   99 1    
    62   30   31 2    
    63   30   32 1    
    64   32   33 1    
    65   32   34 1    
    66   32  100 1    
    67   33  101 1    
    68   33  102 1    
    69   33  103 1    
    70   34   35 am   BACKBONE|DICT|INTERRES
    71   34  104 1    
    72   35   36 2    
    73   37   38 2    
    74   37   39 am   BACKBONE|DICT|INTERRES
    75   39   40 1    
    76   39  105 1    
    77   40   41 1    
    78   40   42 1    
    79   40  106 1    
    80   41  107 1    
    81   41  108 1    
    82   41  109 1    
    83   42   43 2    
    84   42   44 am   BACKBONE|DICT|INTERRES
    85   44   45 1    
    86   44  110 1    
    87   45   46 1    
    88   45   47 1    
    89   45  111 1    
    90   46  112 1    
    91   46  113 1    
    92   46  114 1    
    93   47   48 2    
    94   47   49 am   BACKBONE|DICT|INTERRES
    95   49   50 1    
    96   49  115 1    
    97   50   51 1    
    98   50   52 1    
    99   50  116 1    
   100   51  117 1    
   101   51  118 1    
   102   51  119 1    
   103   52   53 2    
   104   52   54 am   BACKBONE|DICT|INTERRES
   105   54   55 1    
   106   54  120 1    
   107   55   56 1    
   108   55   57 1    
   109   55  121 1    
   110   56  122 1    
   111   56  123 1    
   112   56  124 1    
   113   57   58 2    
   114   57   59 am   BACKBONE|DICT|INTERRES
   115   59   60 1    
   116   59  125 1    
   117   60   61 1    
   118   60   62 1    
   119   60  126 1    
   120   61  127 1    
   121   61  128 1    
   122   61  129 1    
   123   62   63 2    
   124   62   64 am   BACKBONE|DICT|INTERRES
   125   64   65 1    
   126   64  130 1    
   127   65   66 1    
   128   65   69 1    
   129   65  131 1    
   130   66   67 am   BACKBONE|DICT|INTERRES
   131   66   68 2    
   132   67  132 1    
   133   67  133 1    
   134   69   70 1    
   135   69  134 1    
   136   69  135 1    
   137   70   71 1    
   138   71  136 1    
   139   71  137 1    
@<TRIPOS>SUBSTRUCTURE
     1 UNK         1 GROUP             0       ****    0 ROOT    
