@<TRIPOS>MOLECULE
3R136
137   139    1
SMALL
USER_CHARGES


@<TRIPOS>ATOM
      1 CA         26.7459   18.4288    2.8699 C.3       0 UNK        -0.1979 
      2 C          27.7156   18.5435    1.7027 C.2       0 UNK         0.4864 
      3 O          27.7853   17.6352    0.8727 O.2       0 UNK        -0.5359 
      4 N          28.4679   19.6486    1.6386 N.am      1 UNK        -0.4318 
      5 CA         29.3884   19.9752    0.5466 C.3       1 UNK         0.0824 
      6 C6         30.5051   20.9488    1.0116 C.3       12 UNK        -0.0944 
      7 S7         29.9032   22.5372    1.6887 S.3       12 UNK        -0.2672 
      8 C8         30.2021   22.2968    3.4658 C.3       12 UNK         0.0333 
      9 C9         29.7363   23.5013    4.2679 C.ar      12 UNK        -0.0807 
     10 C10        30.6510   24.4835    4.6601 C.ar      12 UNK        -0.0894 
     11 C11        30.2274   25.5833    5.4118 C.ar      12 UNK        -0.0804 
     12 C12        28.8837   25.6944    5.7769 C.ar      12 UNK        -0.0824 
     13 C13        27.9563   24.7337    5.3674 C.ar      12 UNK        -0.0762 
     14 C14        28.3890   23.6341    4.6197 C.ar      12 UNK        -0.0782 
     15 C15        26.4863   24.8893    5.7229 C.3       12 UNK         0.0230 
     16 S16        25.5681   25.7382    4.3991 S.3       12 UNK        -0.2608 
     17 C17        26.0878   27.4793    4.6090 C.3       12 UNK        -0.0989 
     18 CA         27.1145   27.9619    3.5459 C.3       5 UNK         0.0716 
     19 N          26.6445   27.6919    2.1785 N.am      5 UNK        -0.4135 
     20 C          27.4093   27.6028    1.0841 C.2       4 UNK         0.5031 
     21 O          28.6273   27.8002    1.0827 O.2       4 UNK        -0.5229 
     22 CA         26.6789   27.3453   -0.2422 C.3       4 UNK         0.0329 
     23 CB         26.2669   28.6794   -0.8872 C.3       4 UNK        -0.2001 
     24 N          27.5397   26.6127   -1.1706 N.am      4 UNK        -0.4303 
     25 C          27.7580   25.2945   -1.1098 C.2       3 UNK         0.5044 
     26 O          27.1708   24.5332   -0.3366 O.2       3 UNK        -0.5152 
     27 CA         28.8140   24.7411   -2.0739 C.3       3 UNK         0.0319 
     28 CB         30.2365   25.0485   -1.5685 C.3       3 UNK        -0.2001 
     29 N          28.6311   23.2987   -2.2007 N.am      3 UNK        -0.4354 
     30 C          29.0535   22.5368   -3.2148 C.2       2 UNK         0.4964 
     31 O          29.6673   22.9812   -4.1870 O.2       2 UNK        -0.5047 
     32 CA         28.7610   21.0252   -3.1109 C.3       2 UNK         0.0288 
     33 CB         29.3529   20.2208   -4.2847 C.3       2 UNK        -0.2113 
     34 N          29.2694   20.4695   -1.8531 N.am      2 UNK        -0.4145 
     35 C          28.6224   20.5133   -0.6811 C.2       1 UNK         0.5006 
     36 O          27.4920   20.9929   -0.5518 O.2       1 UNK        -0.5103 
     37 C          27.4969   29.4523    3.7493 C.2       5 UNK         0.5055 
     38 O          27.1236   30.0588    4.7563 O.2       5 UNK        -0.5220 
     39 N          28.2047   30.0365    2.7756 N.am      6 UNK        -0.4450 
     40 CA         28.5898   31.4436    2.7078 C.3       6 UNK         0.0367 
     41 CB         28.8034   31.8234    1.2304 C.3       6 UNK        -0.1929 
     42 C          29.8371   31.7112    3.5616 C.2       6 UNK         0.5070 
     43 O          30.9169   31.9424    3.0152 O.2       6 UNK        -0.5237 
     44 N          29.6787   31.6657    4.8904 N.am      7 UNK        -0.4739 
     45 CA         30.7519   31.8170    5.8840 C.3       7 UNK         0.0276 
     46 CB         30.1602   31.6906    7.2958 C.3       7 UNK        -0.1927 
     47 C          31.5749   33.1120    5.7519 C.2       7 UNK         0.5013 
     48 O          32.7787   33.0896    6.0094 O.2       7 UNK        -0.5193 
     49 N          30.9362   34.1934    5.2819 N.am      8 UNK        -0.4253 
     50 CA         31.5733   35.4710    4.9408 C.3       8 UNK         0.0242 
     51 CB         30.4825   36.5030    4.6114 C.3       8 UNK        -0.2000 
     52 C          32.5910   35.3790    3.7844 C.2       8 UNK         0.4948 
     53 O          33.4841   36.2232    3.7067 O.2       8 UNK        -0.5275 
     54 N          32.4537   34.3587    2.9271 N.am      9 UNK        -0.4246 
     55 CA         33.3684   34.0197    1.8361 C.3       9 UNK         0.0261 
     56 CB         32.5626   33.9589    0.5247 C.3       9 UNK        -0.1959 
     57 C          34.0917   32.6873    2.1183 C.2       9 UNK         0.5033 
     58 O          34.5417   32.0331    1.1750 O.2       9 UNK        -0.5390 
     59 N          34.1602   32.2833    3.3989 N.am      10 UNK        -0.4215 
     60 CA         34.7420   31.0357    3.9142 C.3       10 UNK         0.0240 
     61 CB         36.2776   31.0510    3.7569 C.3       10 UNK        -0.1982 
     62 C          34.0991   29.7557    3.3376 C.2       10 UNK         0.4970 
     63 O          34.7575   28.7150    3.2909 O.2       10 UNK        -0.4916 
     64 N          32.8329   29.8566    2.9103 N.am      11 UNK        -0.4279 
     65 CA         32.0371   28.8003    2.2650 C.3       11 UNK         0.1003 
     66 C          32.5788   28.3637    0.8696 C.2       11 UNK         0.5709 
     67 N          33.3739   29.1838    0.1886 N.am      11 UNK        -0.7358 
     68 O          32.2649   27.2816    0.3812 O.2       11 UNK        -0.4999 
     69 C69        31.7187   27.6084    3.2127 C.3       12 UNK        -0.0954 
     70 S70        30.9915   28.1542    4.7959 S.3       12 UNK        -0.2268 
     71 C71        31.2098   26.6684    5.8177 C.3       12 UNK         0.0203 
     72 H72        26.8024   19.2916    3.5335 H         1 UNK         0.0888 
     73 H73        25.7234   18.3513    2.5012 H         1 UNK         0.0888 
     74 H74        26.9664   17.5364    3.4550 H         1 UNK         0.0888 
     75 H75        28.3260   20.3880    2.3105 H         1 UNK         0.3017 
     76 H76        29.8756   19.0486    0.2342 H         1 UNK         0.0873 
     77 H77        31.1249   20.4532    1.7605 H         1 UNK         0.0745 
     78 H78        31.1842   21.1727    0.1868 H         1 UNK         0.0745 
     79 H79        29.6832   21.4010    3.8096 H         1 UNK         0.0705 
     80 H80        31.2661   22.1199    3.6318 H         1 UNK         0.0705 
     81 H81        31.6904   24.3958    4.3744 H         1 UNK         0.1334 
     82 H82        28.5578   26.5484    6.3548 H         1 UNK         0.1417 
     83 H83        27.6744   22.8876    4.3002 H         1 UNK         0.1562 
     84 H84        26.3688   25.4284    6.6643 H         1 UNK         0.0748 
     85 H85        26.0417   23.9056    5.8818 H         1 UNK         0.0748 
     86 H86        25.1868   28.0945    4.5662 H         1 UNK         0.0940 
     87 H87        26.4868   27.6155    5.6155 H         1 UNK         0.0940 
     88 H88        28.0340   27.3917    3.6918 H         1 UNK         0.0703 
     89 H89        25.6500   27.5450    2.0856 H         1 UNK         0.3081 
     90 H90        25.7799   26.7560   -0.0473 H         1 UNK         0.0719 
     91 H91        25.5996   29.2421   -0.2329 H         1 UNK         0.0809 
     92 H92        27.1306   29.3136   -1.0926 H         1 UNK         0.0809 
     93 H93        25.7372   28.5191   -1.8264 H         1 UNK         0.0809 
     94 H94        28.0995   27.1701   -1.7993 H         1 UNK         0.2990 
     95 H95        28.6625   25.2065   -3.0502 H         1 UNK         0.0690 
     96 H96        30.9959   24.6818   -2.2590 H         1 UNK         0.0788 
     97 H97        30.4226   24.5942   -0.5944 H         1 UNK         0.0788 
     98 H98        30.3935   26.1222   -1.4580 H         1 UNK         0.0788 
     99 H99        28.0980   22.8745   -1.4457 H         1 UNK         0.2993 
    100 H100       27.6754   20.9073   -3.1452 H         1 UNK         0.0949 
    101 H101       29.0984   19.1634   -4.2085 H         1 UNK         0.0767 
    102 H102       28.9626   20.5769   -5.2392 H         1 UNK         0.0767 
    103 H103       30.4399   20.3027   -4.3247 H         1 UNK         0.0767 
    104 H104       30.2074   20.0956   -1.8790 H         1 UNK         0.3013 
    105 H105       28.5198   29.4344    2.0188 H         1 UNK         0.3121 
    106 H106       27.7771   32.0589    3.0998 H         1 UNK         0.0774 
    107 H107       29.5903   31.2260    0.7674 H         1 UNK         0.0815 
    108 H108       27.8919   31.6831    0.6492 H         1 UNK         0.0815 
    109 H109       29.0907   32.8713    1.1340 H         1 UNK         0.0815 
    110 H110       28.7631   31.4042    5.2394 H         1 UNK         0.2987 
    111 H111       31.4468   30.9887    5.7325 H         1 UNK         0.0949 
    112 H112       29.6783   30.7227    7.4369 H         1 UNK         0.0806 
    113 H113       30.9387   31.7763    8.0554 H         1 UNK         0.0806 
    114 H114       29.4211   32.4673    7.4953 H         1 UNK         0.0806 
    115 H115       29.9477   34.1109    5.0927 H         1 UNK         0.3010 
    116 H116       32.1173   35.8150    5.8231 H         1 UNK         0.0829 
    117 H117       29.8897   36.2022    3.7465 H         1 UNK         0.0813 
    118 H118       30.9215   37.4754    4.3827 H         1 UNK         0.0813 
    119 H119       29.8037   36.6470    5.4523 H         1 UNK         0.0813 
    120 H120       31.7105   33.6815    3.0813 H         1 UNK         0.3038 
    121 H121       34.1404   34.7843    1.7308 H         1 UNK         0.0769 
    122 H122       32.0418   34.8976    0.3360 H         1 UNK         0.0811 
    123 H123       31.8188   33.1611    0.5482 H         1 UNK         0.0811 
    124 H124       33.2140   33.7745   -0.3305 H         1 UNK         0.0811 
    125 H125       33.7351   32.8741    4.1052 H         1 UNK         0.3204 
    126 H126       34.5207   31.0214    4.9824 H         1 UNK         0.0748 
    127 H127       36.5763   31.0031    2.7092 H         1 UNK         0.0771 
    128 H128       36.7114   31.9528    4.1888 H         1 UNK         0.0771 
    129 H129       36.7338   30.2002    4.2645 H         1 UNK         0.0771 
    130 H130       32.3576   30.7518    2.9821 H         1 UNK         0.2980 
    131 H131       31.0820   29.2720    2.0347 H         1 UNK         0.0545 
    132 H132       33.6590   30.0733    0.5788 H         1 UNK         0.3459 
    133 H133       33.7154   28.8981   -0.7148 H         1 UNK         0.3459 
    134 H134       32.6205   27.0282    3.4129 H         1 UNK         0.0616 
    135 H135       31.0095   26.9263    2.7398 H         1 UNK         0.0616 
    136 H136       32.2403   26.3173    5.7449 H         1 UNK         0.0634 
    137 H137       31.0476   26.9331    6.8635 H         1 UNK         0.0634 
@<TRIPOS>BOND
     1    1    2 1    
     2    1   72 1    
     3    1   73 1    
     4    1   74 1    
     5    2    3 2    
     6    2    4 am   BACKBONE|DICT|INTERRES
     7    4    5 1    
     8    4   75 1    
     9    5    6 1    
    10    5   35 1    
    11    5   76 1    
    12    6    7 1    
    13    6   77 1    
    14    6   78 1    
    15    7    8 1    
    16    8    9 1    
    17    8   79 1    
    18    8   80 1    
    19    9   10 ar   
    20    9   14 ar   
    21   10   11 ar   
    22   10   81 1    
    23   11   12 ar   
    24   11   71 1    
    25   12   13 ar   
    26   12   82 1    
    27   13   14 ar   
    28   13   15 1    
    29   14   83 1    
    30   15   16 1    
    31   15   84 1    
    32   15   85 1    
    33   16   17 1    
    34   17   18 1    
    35   17   86 1    
    36   17   87 1    
    37   18   19 1    
    38   18   37 1    
    39   18   88 1    
    40   19   20 am   BACKBONE|DICT|INTERRES
    41   19   89 1    
    42   20   21 2    
    43   20   22 1    
    44   22   23 1    
    45   22   24 1    
    46   22   90 1    
    47   23   91 1    
    48   23   92 1    
    49   23   93 1    
    50   24   25 am   BACKBONE|DICT|INTERRES
    51   24   94 1    
    52   25   26 2    
    53   25   27 1    
    54   27   28 1    
    55   27   29 1    
    56   27   95 1    
    57   28   96 1    
    58   28   97 1    
    59   28   98 1    
    60   29   30 am   BACKBONE|DICT|INTERRES
    61   29   99 1    
    62   30   31 2    
    63   30   32 1    
    64   32   33 1    
    65   32   34 1    
    66   32  100 1    
    67   33  101 1    
    68   33  102 1    
    69   33  103 1    
    70   34   35 am   BACKBONE|DICT|INTERRES
    71   34  104 1    
    72   35   36 2    
    73   37   38 2    
    74   37   39 am   BACKBONE|DICT|INTERRES
    75   39   40 1    
    76   39  105 1    
    77   40   41 1    
    78   40   42 1    
    79   40  106 1    
    80   41  107 1    
    81   41  108 1    
    82   41  109 1    
    83   42   43 2    
    84   42   44 am   BACKBONE|DICT|INTERRES
    85   44   45 1    
    86   44  110 1    
    87   45   46 1    
    88   45   47 1    
    89   45  111 1    
    90   46  112 1    
    91   46  113 1    
    92   46  114 1    
    93   47   48 2    
    94   47   49 am   BACKBONE|DICT|INTERRES
    95   49   50 1    
    96   49  115 1    
    97   50   51 1    
    98   50   52 1    
    99   50  116 1    
   100   51  117 1    
   101   51  118 1    
   102   51  119 1    
   103   52   53 2    
   104   52   54 am   BACKBONE|DICT|INTERRES
   105   54   55 1    
   106   54  120 1    
   107   55   56 1    
   108   55   57 1    
   109   55  121 1    
   110   56  122 1    
   111   56  123 1    
   112   56  124 1    
   113   57   58 2    
   114   57   59 am   BACKBONE|DICT|INTERRES
   115   59   60 1    
   116   59  125 1    
   117   60   61 1    
   118   60   62 1    
   119   60  126 1    
   120   61  127 1    
   121   61  128 1    
   122   61  129 1    
   123   62   63 2    
   124   62   64 am   BACKBONE|DICT|INTERRES
   125   64   65 1    
   126   64  130 1    
   127   65   66 1    
   128   65   69 1    
   129   65  131 1    
   130   66   67 am   BACKBONE|DICT|INTERRES
   131   66   68 2    
   132   67  132 1    
   133   67  133 1    
   134   69   70 1    
   135   69  134 1    
   136   69  135 1    
   137   70   71 1    
   138   71  136 1    
   139   71  137 1    
@<TRIPOS>SUBSTRUCTURE
     1 UNK         1 GROUP             0       ****    0 ROOT    
