@<TRIPOS>MOLECULE
3R136
137   139    1
SMALL
USER_CHARGES


@<TRIPOS>ATOM
      1 CA         32.8389   25.0434   -0.2353 C.3       0 UNK        -0.1979 
      2 C          31.4362   25.2023    0.3292 C.2       0 UNK         0.4864 
      3 O          30.9249   26.3195    0.3856 O.2       0 UNK        -0.5359 
      4 N          30.8095   24.0987    0.7536 N.am      1 UNK        -0.4318 
      5 CA         29.4499   24.0941    1.2923 C.3       1 UNK         0.0824 
      6 C6         29.2053   22.8820    2.2276 C.3       12 UNK        -0.0944 
      7 S7         27.7296   23.0960    3.2792 S.3       12 UNK        -0.2672 
      8 C8         28.4808   23.6331    4.8498 C.3       12 UNK         0.0333 
      9 C9         28.9975   25.0621    4.7655 C.ar      12 UNK        -0.0807 
     10 C10        30.3326   25.3188    4.4393 C.ar      12 UNK        -0.0894 
     11 C11        30.8053   26.6326    4.3548 C.ar      12 UNK        -0.0804 
     12 C12        29.9302   27.6955    4.6004 C.ar      12 UNK        -0.0824 
     13 C13        28.5949   27.4501    4.9365 C.ar      12 UNK        -0.0762 
     14 C14        28.1361   26.1320    5.0189 C.ar      12 UNK        -0.0782 
     15 C15        27.6464   28.6017    5.2341 C.3       12 UNK         0.0230 
     16 S16        26.3057   28.7126    4.0077 S.3       12 UNK        -0.2608 
     17 C17        27.1727   29.4123    2.5628 C.3       12 UNK        -0.0989 
     18 CA         27.5371   28.3565    1.4796 C.3       5 UNK         0.0716 
     19 N          26.4144   27.5243    1.0282 N.am      5 UNK        -0.4135 
     20 C          25.2906   27.9456    0.4287 C.2       4 UNK         0.5031 
     21 O          24.9869   29.1318    0.2944 O.2       4 UNK        -0.5229 
     22 CA         24.3405   26.8832   -0.1502 C.3       4 UNK         0.0329 
     23 CB         24.2911   26.9844   -1.6860 C.3       4 UNK        -0.2001 
     24 N          24.7003   25.5091    0.2132 N.am      4 UNK        -0.4303 
     25 C          23.8261   24.5634    0.5899 C.2       3 UNK         0.5044 
     26 O          22.6297   24.7845    0.7869 O.2       3 UNK        -0.5152 
     27 CA         24.3669   23.1257    0.7731 C.3       3 UNK         0.0319 
     28 CB         23.3149   22.0477    0.4356 C.3       3 UNK        -0.2001 
     29 N          25.6240   22.8707    0.0572 N.am      3 UNK        -0.4354 
     30 C          25.8538   22.9594   -1.2645 C.2       2 UNK         0.4964 
     31 O          24.9657   23.1168   -2.1029 O.2       2 UNK        -0.5047 
     32 CA         27.3295   22.9123   -1.7267 C.3       2 UNK         0.0288 
     33 CB         27.5907   23.8982   -2.8850 C.3       2 UNK        -0.2113 
     34 N          28.3118   23.1246   -0.6492 N.am      2 UNK        -0.4145 
     35 C          28.4148   24.1936    0.1585 C.2       1 UNK         0.5006 
     36 O          27.7086   25.2008    0.0629 O.2       1 UNK        -0.5103 
     37 C          28.2348   28.9842    0.2542 C.2       5 UNK         0.5055 
     38 O          28.3186   30.2101    0.1492 O.2       5 UNK        -0.5220 
     39 N          28.6701   28.1257   -0.6822 N.am      6 UNK        -0.4450 
     40 CA         29.3360   28.5128   -1.9317 C.3       6 UNK         0.0367 
     41 CB         29.5720   27.2700   -2.8042 C.3       6 UNK        -0.1929 
     42 C          30.6463   29.2868   -1.7039 C.2       6 UNK         0.5070 
     43 O          30.8898   30.2838   -2.3852 O.2       6 UNK        -0.5237 
     44 N          31.4392   28.8449   -0.7213 N.am      7 UNK        -0.4739 
     45 CA         32.5336   29.6136   -0.1405 C.3       7 UNK         0.0276 
     46 CB         33.5684   28.6552    0.4725 C.3       7 UNK        -0.1927 
     47 C          31.9444   30.5523    0.9212 C.2       7 UNK         0.5013 
     48 O          31.4795   30.0785    1.9607 O.2       7 UNK        -0.5193 
     49 N          31.9648   31.8619    0.6451 N.am      8 UNK        -0.4253 
     50 CA         31.4750   32.9159    1.5376 C.3       8 UNK         0.0242 
     51 CB         31.1185   34.1562    0.6965 C.3       8 UNK        -0.2000 
     52 C          32.4993   33.2230    2.6471 C.2       8 UNK         0.4948 
     53 O          33.0561   34.3220    2.6935 O.2       8 UNK        -0.5275 
     54 N          32.7538   32.2278    3.4998 N.am      9 UNK        -0.4246 
     55 CA         33.7174   32.2458    4.5939 C.3       9 UNK         0.0261 
     56 CB         35.1319   31.9824    4.0378 C.3       9 UNK        -0.1959 
     57 C          33.3158   31.1772    5.6181 C.2       9 UNK         0.5033 
     58 O          32.4121   30.3801    5.3540 O.2       9 UNK        -0.5390 
     59 N          34.0132   31.1617    6.7616 N.am      10 UNK        -0.4215 
     60 CA         33.8467   30.1575    7.8189 C.3       10 UNK         0.0240 
     61 CB         34.5680   30.6364    9.0901 C.3       10 UNK        -0.1982 
     62 C          34.3346   28.7502    7.4203 C.2       10 UNK         0.4970 
     63 O          33.8666   27.7775    8.0112 O.2       10 UNK        -0.4916 
     64 N          35.2652   28.6857    6.4536 N.am      11 UNK        -0.4279 
     65 CA         35.8615   27.4906    5.8239 C.3       11 UNK         0.1003 
     66 C          36.4962   26.4244    6.7716 C.2       11 UNK         0.5709 
     67 N          36.8195   26.7569    8.0154 N.am      11 UNK        -0.7358 
     68 O          36.7518   25.2936    6.3633 O.2       11 UNK        -0.4999 
     69 C69        34.9948   26.9022    4.6687 C.3       12 UNK        -0.0954 
     70 S70        33.4097   26.1566    5.1799 S.3       12 UNK        -0.2268 
     71 C71        32.2567   26.9059    3.9864 C.3       12 UNK         0.0203 
     72 H72        32.9172   25.5573   -1.1930 H         1 UNK         0.0888 
     73 H73        33.5672   25.4799    0.4473 H         1 UNK         0.0888 
     74 H74        33.0997   23.9967   -0.3897 H         1 UNK         0.0888 
     75 H75        31.2727   23.2037    0.6851 H         1 UNK         0.3017 
     76 H76        29.3338   24.9991    1.8922 H         1 UNK         0.0873 
     77 H77        29.1060   21.9494    1.6700 H         1 UNK         0.0745 
     78 H78        30.0703   22.7323    2.8749 H         1 UNK         0.0745 
     79 H79        27.7305   23.5607    5.6386 H         1 UNK         0.0705 
     80 H80        29.2819   22.9487    5.1332 H         1 UNK         0.0705 
     81 H81        31.0085   24.4974    4.2462 H         1 UNK         0.1334 
     82 H82        30.2930   28.7131    4.5334 H         1 UNK         0.1417 
     83 H83        27.1022   25.9408    5.2733 H         1 UNK         0.1562 
     84 H84        28.1799   29.5523    5.2850 H         1 UNK         0.0748 
     85 H85        27.2057   28.4481    6.2201 H         1 UNK         0.0748 
     86 H86        28.0755   29.9260    2.8990 H         1 UNK         0.0940 
     87 H87        26.5327   30.1900    2.1428 H         1 UNK         0.0940 
     88 H88        28.2621   27.6712    1.9230 H         1 UNK         0.0703 
     89 H89        26.6107   26.5314    1.0263 H         1 UNK         0.3081 
     90 H90        23.3504   27.1245    0.2419 H         1 UNK         0.0719 
     91 H91        24.0010   27.9857   -2.0072 H         1 UNK         0.0809 
     92 H92        25.2615   26.7644   -2.1332 H         1 UNK         0.0809 
     93 H93        23.5650   26.2876   -2.1054 H         1 UNK         0.0809 
     94 H94        25.6651   25.2370    0.0599 H         1 UNK         0.2990 
     95 H95        24.6037   23.0322    1.8341 H         1 UNK         0.0690 
     96 H96        23.7150   21.0441    0.5788 H         1 UNK         0.0788 
     97 H97        22.9690   22.1278   -0.5953 H         1 UNK         0.0788 
     98 H98        22.4389   22.1394    1.0790 H         1 UNK         0.0788 
     99 H99        26.4267   22.7242    0.6529 H         1 UNK         0.2993 
    100 H100       27.4968   21.9016   -2.1023 H         1 UNK         0.0949 
    101 H101       27.3135   24.9165   -2.6122 H         1 UNK         0.0767 
    102 H102       28.6401   23.9009   -3.1800 H         1 UNK         0.0767 
    103 H103       27.0076   23.6306   -3.7670 H         1 UNK         0.0767 
    104 H104       28.9426   22.3514   -0.4892 H         1 UNK         0.3013 
    105 H105       28.5774   27.1322   -0.5035 H         1 UNK         0.3121 
    106 H106       28.6569   29.1783   -2.4686 H         1 UNK         0.0774 
    107 H107       30.1656   26.5161   -2.2866 H         1 UNK         0.0815 
    108 H108       28.6284   26.8133   -3.0993 H         1 UNK         0.0815 
    109 H109       30.1025   27.5311   -3.7209 H         1 UNK         0.0815 
    110 H110       31.1572   28.0052   -0.2145 H         1 UNK         0.2987 
    111 H111       33.0302   30.1996   -0.9172 H         1 UNK         0.0949 
    112 H112       34.0054   28.0078   -0.2875 H         1 UNK         0.0806 
    113 H113       34.3842   29.2083    0.9395 H         1 UNK         0.0806 
    114 H114       33.1246   28.0195    1.2387 H         1 UNK         0.0806 
    115 H115       32.3655   32.1672   -0.2303 H         1 UNK         0.3010 
    116 H116       30.5593   32.5708    2.0236 H         1 UNK         0.0829 
    117 H117       31.9867   34.5518    0.1678 H         1 UNK         0.0813 
    118 H118       30.7281   34.9560    1.3274 H         1 UNK         0.0813 
    119 H119       30.3511   33.9255   -0.0428 H         1 UNK         0.0813 
    120 H120       32.2404   31.3533    3.4046 H         1 UNK         0.3038 
    121 H121       33.6851   33.2204    5.0855 H         1 UNK         0.0769 
    122 H122       35.4136   32.7317    3.2977 H         1 UNK         0.0811 
    123 H123       35.1987   31.0037    3.5604 H         1 UNK         0.0811 
    124 H124       35.8854   32.0173    4.8250 H         1 UNK         0.0811 
    125 H125       34.7230   31.8653    6.9104 H         1 UNK         0.3204 
    126 H126       32.7803   30.0781    8.0418 H         1 UNK         0.0748 
    127 H127       35.6403   30.7541    8.9284 H         1 UNK         0.0771 
    128 H128       34.1725   31.5922    9.4347 H         1 UNK         0.0771 
    129 H129       34.4377   29.9228    9.9051 H         1 UNK         0.0771 
    130 H130       35.5953   29.5629    6.0825 H         1 UNK         0.2980 
    131 H131       36.7424   27.8969    5.3257 H         1 UNK         0.0545 
    132 H132       37.2442   26.0680    8.6156 H         1 UNK         0.3459 
    133 H133       36.6118   27.6769    8.3680 H         1 UNK         0.3459 
    134 H134       34.7967   27.6912    3.9418 H         1 UNK         0.0616 
    135 H135       35.5577   26.1456    4.1197 H         1 UNK         0.0616 
    136 H136       32.4564   26.5024    2.9936 H         1 UNK         0.0634 
    137 H137       32.4403   27.9804    3.9327 H         1 UNK         0.0634 
@<TRIPOS>BOND
     1    1    2 1    
     2    1   72 1    
     3    1   73 1    
     4    1   74 1    
     5    2    3 2    
     6    2    4 am   BACKBONE|DICT|INTERRES
     7    4    5 1    
     8    4   75 1    
     9    5    6 1    
    10    5   35 1    
    11    5   76 1    
    12    6    7 1    
    13    6   77 1    
    14    6   78 1    
    15    7    8 1    
    16    8    9 1    
    17    8   79 1    
    18    8   80 1    
    19    9   10 ar   
    20    9   14 ar   
    21   10   11 ar   
    22   10   81 1    
    23   11   12 ar   
    24   11   71 1    
    25   12   13 ar   
    26   12   82 1    
    27   13   14 ar   
    28   13   15 1    
    29   14   83 1    
    30   15   16 1    
    31   15   84 1    
    32   15   85 1    
    33   16   17 1    
    34   17   18 1    
    35   17   86 1    
    36   17   87 1    
    37   18   19 1    
    38   18   37 1    
    39   18   88 1    
    40   19   20 am   BACKBONE|DICT|INTERRES
    41   19   89 1    
    42   20   21 2    
    43   20   22 1    
    44   22   23 1    
    45   22   24 1    
    46   22   90 1    
    47   23   91 1    
    48   23   92 1    
    49   23   93 1    
    50   24   25 am   BACKBONE|DICT|INTERRES
    51   24   94 1    
    52   25   26 2    
    53   25   27 1    
    54   27   28 1    
    55   27   29 1    
    56   27   95 1    
    57   28   96 1    
    58   28   97 1    
    59   28   98 1    
    60   29   30 am   BACKBONE|DICT|INTERRES
    61   29   99 1    
    62   30   31 2    
    63   30   32 1    
    64   32   33 1    
    65   32   34 1    
    66   32  100 1    
    67   33  101 1    
    68   33  102 1    
    69   33  103 1    
    70   34   35 am   BACKBONE|DICT|INTERRES
    71   34  104 1    
    72   35   36 2    
    73   37   38 2    
    74   37   39 am   BACKBONE|DICT|INTERRES
    75   39   40 1    
    76   39  105 1    
    77   40   41 1    
    78   40   42 1    
    79   40  106 1    
    80   41  107 1    
    81   41  108 1    
    82   41  109 1    
    83   42   43 2    
    84   42   44 am   BACKBONE|DICT|INTERRES
    85   44   45 1    
    86   44  110 1    
    87   45   46 1    
    88   45   47 1    
    89   45  111 1    
    90   46  112 1    
    91   46  113 1    
    92   46  114 1    
    93   47   48 2    
    94   47   49 am   BACKBONE|DICT|INTERRES
    95   49   50 1    
    96   49  115 1    
    97   50   51 1    
    98   50   52 1    
    99   50  116 1    
   100   51  117 1    
   101   51  118 1    
   102   51  119 1    
   103   52   53 2    
   104   52   54 am   BACKBONE|DICT|INTERRES
   105   54   55 1    
   106   54  120 1    
   107   55   56 1    
   108   55   57 1    
   109   55  121 1    
   110   56  122 1    
   111   56  123 1    
   112   56  124 1    
   113   57   58 2    
   114   57   59 am   BACKBONE|DICT|INTERRES
   115   59   60 1    
   116   59  125 1    
   117   60   61 1    
   118   60   62 1    
   119   60  126 1    
   120   61  127 1    
   121   61  128 1    
   122   61  129 1    
   123   62   63 2    
   124   62   64 am   BACKBONE|DICT|INTERRES
   125   64   65 1    
   126   64  130 1    
   127   65   66 1    
   128   65   69 1    
   129   65  131 1    
   130   66   67 am   BACKBONE|DICT|INTERRES
   131   66   68 2    
   132   67  132 1    
   133   67  133 1    
   134   69   70 1    
   135   69  134 1    
   136   69  135 1    
   137   70   71 1    
   138   71  136 1    
   139   71  137 1    
@<TRIPOS>SUBSTRUCTURE
     1 UNK         1 GROUP             0       ****    0 ROOT    
