@<TRIPOS>MOLECULE
3R136
137   139    1
SMALL
USER_CHARGES


@<TRIPOS>ATOM
      1 CA         31.4434   21.5198   -1.4842 C.3       0 UNK        -0.1979 
      2 C          31.3092   23.0150   -1.7299 C.2       0 UNK         0.4864 
      3 O          31.4730   23.4694   -2.8635 O.2       0 UNK        -0.5359 
      4 N          30.9918   23.7867   -0.6823 N.am      1 UNK        -0.4318 
      5 CA         30.8573   25.2497   -0.6960 C.3       1 UNK         0.0824 
      6 C6         31.0787   25.8500    0.7153 C.3       12 UNK        -0.0944 
      7 S7         32.7831   25.6249    1.3317 S.3       12 UNK        -0.2672 
      8 C8         32.6668   24.1360    2.3785 C.3       12 UNK         0.0333 
      9 C9         31.6955   24.3058    3.5382 C.ar      12 UNK        -0.0807 
     10 C10        32.0466   25.0879    4.6421 C.ar      12 UNK        -0.0894 
     11 C11        31.1551   25.2546    5.7071 C.ar      12 UNK        -0.0804 
     12 C12        29.9102   24.6201    5.6681 C.ar      12 UNK        -0.0824 
     13 C13        29.5505   23.8290    4.5718 C.ar      12 UNK        -0.0762 
     14 C14        30.4494   23.6712    3.5137 C.ar      12 UNK        -0.0782 
     15 C15        28.1912   23.1440    4.5246 C.3       12 UNK         0.0230 
     16 S16        27.0016   24.0629    3.4935 S.3       12 UNK        -0.2608 
     17 C17        26.8081   25.5991    4.4604 C.3       12 UNK        -0.0989 
     18 CA         27.6229   26.7699    3.8431 C.3       5 UNK         0.0716 
     19 N          27.1475   27.1317    2.4984 N.am      5 UNK        -0.4135 
     20 C          25.9705   27.6978    2.1885 C.2       4 UNK         0.5031 
     21 O          25.1557   28.1102    3.0140 O.2       4 UNK        -0.5229 
     22 CA         25.6484   27.8058    0.6935 C.3       4 UNK         0.0329 
     23 CB         26.4615   28.9331    0.0347 C.3       4 UNK        -0.2001 
     24 N          25.9143   26.5400    0.0111 N.am      4 UNK        -0.4303 
     25 C          25.0848   25.4844    0.0049 C.2       3 UNK         0.5044 
     26 O          23.9819   25.4893    0.5544 O.2       3 UNK        -0.5152 
     27 CA         25.5591   24.2045   -0.7240 C.3       3 UNK         0.0319 
     28 CB         24.4009   23.4494   -1.4104 C.3       3 UNK        -0.2001 
     29 N          26.6709   24.4302   -1.6581 N.am      3 UNK        -0.4354 
     30 C          26.6815   25.2208   -2.7435 C.2       2 UNK         0.4964 
     31 O          25.6710   25.7413   -3.2182 O.2       2 UNK        -0.5047 
     32 CA         28.0566   25.5209   -3.3823 C.3       2 UNK         0.0288 
     33 CB         28.1410   26.9780   -3.8853 C.3       2 UNK        -0.2113 
     34 N          29.2243   25.2249   -2.5341 N.am      2 UNK        -0.4145 
     35 C          29.5071   25.6919   -1.3072 C.2       1 UNK         0.5006 
     36 O          28.7357   26.4002   -0.6540 O.2       1 UNK        -0.5103 
     37 C          27.7751   27.9667    4.8149 C.2       5 UNK         0.5055 
     38 O          27.8117   27.7637    6.0298 O.2       5 UNK        -0.5220 
     39 N          27.8932   29.1854    4.2737 N.am      6 UNK        -0.4450 
     40 CA         28.1435   30.4208    5.0089 C.3       6 UNK         0.0367 
     41 CB         26.9012   30.8697    5.8071 C.3       6 UNK        -0.1929 
     42 C          28.6064   31.4888    4.0168 C.2       6 UNK         0.5070 
     43 O          29.7701   31.8885    4.0527 O.2       6 UNK        -0.5237 
     44 N          27.6935   31.9051    3.1269 N.am      7 UNK        -0.4739 
     45 CA         27.9128   32.9220    2.0945 C.3       7 UNK         0.0276 
     46 CB         26.5844   33.2051    1.3716 C.3       7 UNK        -0.1927 
     47 C          29.0136   32.5046    1.1044 C.2       7 UNK         0.5013 
     48 O          28.7744   31.6359    0.2642 O.2       7 UNK        -0.5193 
     49 N          30.2017   33.1064    1.2644 N.am      8 UNK        -0.4253 
     50 CA         31.4449   32.8414    0.5274 C.3       8 UNK         0.0242 
     51 CB         31.3009   33.2526   -0.9542 C.3       8 UNK        -0.2000 
     52 C          31.9830   31.4029    0.6935 C.2       8 UNK         0.4948 
     53 O          32.7327   30.9360   -0.1668 O.2       8 UNK        -0.5275 
     54 N          31.6090   30.7245    1.7876 N.am      9 UNK        -0.4246 
     55 CA         32.0627   29.3720    2.1067 C.3       9 UNK         0.0261 
     56 CB         31.0068   28.6791    2.9794 C.3       9 UNK        -0.1959 
     57 C          33.4228   29.4021    2.8157 C.2       9 UNK         0.5033 
     58 O          33.7083   30.3366    3.5691 O.2       9 UNK        -0.5390 
     59 N          34.2244   28.3533    2.6001 N.am      10 UNK        -0.4215 
     60 CA         35.5610   28.1711    3.1725 C.3       10 UNK         0.0240 
     61 CB         36.3868   27.2851    2.2200 C.3       10 UNK        -0.1982 
     62 C          35.5069   27.6092    4.6076 C.2       10 UNK         0.4970 
     63 O          36.1843   26.6247    4.9098 O.2       10 UNK        -0.4916 
     64 N          34.6824   28.2255    5.4602 N.am      11 UNK        -0.4279 
     65 CA         34.5018   27.8540    6.8692 C.3       11 UNK         0.1003 
     66 C          35.6916   28.3055    7.7586 C.2       11 UNK         0.5709 
     67 N          35.9298   27.6192    8.8683 N.am      11 UNK        -0.7358 
     68 O          36.3776   29.2865    7.4748 O.2       11 UNK        -0.4999 
     69 C69        33.1505   28.3669    7.4371 C.3       12 UNK        -0.0954 
     70 S70        31.7108   27.8598    6.4384 S.3       12 UNK        -0.2268 
     71 C71        31.5478   26.1080    6.9036 C.3       12 UNK         0.0203 
     72 H72        30.7244   20.9732   -2.0938 H         1 UNK         0.0888 
     73 H73        32.4444   21.1849   -1.7549 H         1 UNK         0.0888 
     74 H74        31.2705   21.2602   -0.4399 H         1 UNK         0.0888 
     75 H75        30.8351   23.3503    0.2129 H         1 UNK         0.3017 
     76 H76        31.6316   25.6583   -1.3495 H         1 UNK         0.0873 
     77 H77        30.9022   26.9253    0.6867 H         1 UNK         0.0745 
     78 H78        30.3543   25.4554    1.4275 H         1 UNK         0.0745 
     79 H79        32.3930   23.2786    1.7632 H         1 UNK         0.0705 
     80 H80        33.6589   23.9142    2.7746 H         1 UNK         0.0705 
     81 H81        33.0103   25.5787    4.6677 H         1 UNK         0.1334 
     82 H82        29.2192   24.7466    6.4902 H         1 UNK         0.1417 
     83 H83        30.1690   23.0597    2.6674 H         1 UNK         0.1562 
     84 H84        27.7847   23.0204    5.5297 H         1 UNK         0.0748 
     85 H85        28.3040   22.1374    4.1192 H         1 UNK         0.0748 
     86 H86        27.1044   25.3986    5.4907 H         1 UNK         0.0940 
     87 H87        25.7478   25.8521    4.5078 H         1 UNK         0.0940 
     88 H88        28.6453   26.4180    3.6982 H         1 UNK         0.0703 
     89 H89        27.7342   26.8276    1.7334 H         1 UNK         0.3081 
     90 H90        24.5885   28.0487    0.5899 H         1 UNK         0.0719 
     91 H91        26.2646   29.8903    0.5181 H         1 UNK         0.0809 
     92 H92        27.5365   28.7569    0.0927 H         1 UNK         0.0809 
     93 H93        26.2015   29.0435   -1.0182 H         1 UNK         0.0809 
     94 H94        26.8250   26.4464   -0.4306 H         1 UNK         0.2990 
     95 H95        25.9554   23.5540    0.0573 H         1 UNK         0.0690 
     96 H96        24.7559   22.5492   -1.9121 H         1 UNK         0.0788 
     97 H97        23.8938   24.0691   -2.1503 H         1 UNK         0.0788 
     98 H98        23.6511   23.1375   -0.6823 H         1 UNK         0.0788 
     99 H99        27.5608   24.0549   -1.3628 H         1 UNK         0.2993 
    100 H100       28.1332   24.8624   -4.2489 H         1 UNK         0.0949 
    101 H101       28.0135   27.6925   -3.0709 H         1 UNK         0.0767 
    102 H102       29.1016   27.1788   -4.3598 H         1 UNK         0.0767 
    103 H103       27.3684   27.1871   -4.6264 H         1 UNK         0.0767 
    104 H104       29.9238   24.6098   -2.9453 H         1 UNK         0.3013 
    105 H105       27.8691   29.2690    3.2673 H         1 UNK         0.3121 
    106 H106       28.9636   30.2471    5.7096 H         1 UNK         0.0774 
    107 H107       26.0094   30.9256    5.1822 H         1 UNK         0.0815 
    108 H108       26.6864   30.1817    6.6247 H         1 UNK         0.0815 
    109 H109       27.0559   31.8539    6.2512 H         1 UNK         0.0815 
    110 H110       26.7660   31.5084    3.1705 H         1 UNK         0.2987 
    111 H111       28.2214   33.8430    2.5941 H         1 UNK         0.0949 
    112 H112       25.8276   33.5786    2.0617 H         1 UNK         0.0806 
    113 H113       26.7170   33.9625    0.5978 H         1 UNK         0.0806 
    114 H114       26.1858   32.3135    0.8868 H         1 UNK         0.0806 
    115 H115       30.2905   33.7640    2.0274 H         1 UNK         0.3010 
    116 H116       32.2009   33.4892    0.9737 H         1 UNK         0.0829 
    117 H117       30.6115   32.5990   -1.4897 H         1 UNK         0.0813 
    118 H118       30.9366   34.2754   -1.0494 H         1 UNK         0.0813 
    119 H119       32.2604   33.2039   -1.4706 H         1 UNK         0.0813 
    120 H120       31.0461   31.1945    2.4882 H         1 UNK         0.3038 
    121 H121       32.1693   28.8078    1.1783 H         1 UNK         0.0769 
    122 H122       30.0574   28.5970    2.4518 H         1 UNK         0.0811 
    123 H123       30.8356   29.2251    3.9074 H         1 UNK         0.0811 
    124 H124       31.3159   27.6687    3.2503 H         1 UNK         0.0811 
    125 H125       33.8797   27.5921    2.0277 H         1 UNK         0.3204 
    126 H126       36.0549   29.1434    3.2313 H         1 UNK         0.0748 
    127 H127       35.9593   26.2857    2.1267 H         1 UNK         0.0771 
    128 H128       36.4425   27.7202    1.2220 H         1 UNK         0.0771 
    129 H129       37.4110   27.1714    2.5781 H         1 UNK         0.0771 
    130 H130       34.1836   29.0465    5.1376 H         1 UNK         0.2980 
    131 H131       34.4845   26.7637    6.9071 H         1 UNK         0.0545 
    132 H132       36.6898   27.9048    9.4659 H         1 UNK         0.3459 
    133 H133       35.3697   26.8196    9.1195 H         1 UNK         0.3459 
    134 H134       33.1509   29.4573    7.4863 H         1 UNK         0.0616 
    135 H135       33.0010   28.0154    8.4596 H         1 UNK         0.0616 
    136 H136       30.8106   26.0272    7.7038 H         1 UNK         0.0634 
    137 H137       32.4835   25.7263    7.3114 H         1 UNK         0.0634 
@<TRIPOS>BOND
     1    1    2 1    
     2    1   72 1    
     3    1   73 1    
     4    1   74 1    
     5    2    3 2    
     6    2    4 am   BACKBONE|DICT|INTERRES
     7    4    5 1    
     8    4   75 1    
     9    5    6 1    
    10    5   35 1    
    11    5   76 1    
    12    6    7 1    
    13    6   77 1    
    14    6   78 1    
    15    7    8 1    
    16    8    9 1    
    17    8   79 1    
    18    8   80 1    
    19    9   10 ar   
    20    9   14 ar   
    21   10   11 ar   
    22   10   81 1    
    23   11   12 ar   
    24   11   71 1    
    25   12   13 ar   
    26   12   82 1    
    27   13   14 ar   
    28   13   15 1    
    29   14   83 1    
    30   15   16 1    
    31   15   84 1    
    32   15   85 1    
    33   16   17 1    
    34   17   18 1    
    35   17   86 1    
    36   17   87 1    
    37   18   19 1    
    38   18   37 1    
    39   18   88 1    
    40   19   20 am   BACKBONE|DICT|INTERRES
    41   19   89 1    
    42   20   21 2    
    43   20   22 1    
    44   22   23 1    
    45   22   24 1    
    46   22   90 1    
    47   23   91 1    
    48   23   92 1    
    49   23   93 1    
    50   24   25 am   BACKBONE|DICT|INTERRES
    51   24   94 1    
    52   25   26 2    
    53   25   27 1    
    54   27   28 1    
    55   27   29 1    
    56   27   95 1    
    57   28   96 1    
    58   28   97 1    
    59   28   98 1    
    60   29   30 am   BACKBONE|DICT|INTERRES
    61   29   99 1    
    62   30   31 2    
    63   30   32 1    
    64   32   33 1    
    65   32   34 1    
    66   32  100 1    
    67   33  101 1    
    68   33  102 1    
    69   33  103 1    
    70   34   35 am   BACKBONE|DICT|INTERRES
    71   34  104 1    
    72   35   36 2    
    73   37   38 2    
    74   37   39 am   BACKBONE|DICT|INTERRES
    75   39   40 1    
    76   39  105 1    
    77   40   41 1    
    78   40   42 1    
    79   40  106 1    
    80   41  107 1    
    81   41  108 1    
    82   41  109 1    
    83   42   43 2    
    84   42   44 am   BACKBONE|DICT|INTERRES
    85   44   45 1    
    86   44  110 1    
    87   45   46 1    
    88   45   47 1    
    89   45  111 1    
    90   46  112 1    
    91   46  113 1    
    92   46  114 1    
    93   47   48 2    
    94   47   49 am   BACKBONE|DICT|INTERRES
    95   49   50 1    
    96   49  115 1    
    97   50   51 1    
    98   50   52 1    
    99   50  116 1    
   100   51  117 1    
   101   51  118 1    
   102   51  119 1    
   103   52   53 2    
   104   52   54 am   BACKBONE|DICT|INTERRES
   105   54   55 1    
   106   54  120 1    
   107   55   56 1    
   108   55   57 1    
   109   55  121 1    
   110   56  122 1    
   111   56  123 1    
   112   56  124 1    
   113   57   58 2    
   114   57   59 am   BACKBONE|DICT|INTERRES
   115   59   60 1    
   116   59  125 1    
   117   60   61 1    
   118   60   62 1    
   119   60  126 1    
   120   61  127 1    
   121   61  128 1    
   122   61  129 1    
   123   62   63 2    
   124   62   64 am   BACKBONE|DICT|INTERRES
   125   64   65 1    
   126   64  130 1    
   127   65   66 1    
   128   65   69 1    
   129   65  131 1    
   130   66   67 am   BACKBONE|DICT|INTERRES
   131   66   68 2    
   132   67  132 1    
   133   67  133 1    
   134   69   70 1    
   135   69  134 1    
   136   69  135 1    
   137   70   71 1    
   138   71  136 1    
   139   71  137 1    
@<TRIPOS>SUBSTRUCTURE
     1 UNK         1 GROUP             0       ****    0 ROOT    
