@<TRIPOS>MOLECULE
3R136
137   139    1
SMALL
USER_CHARGES


@<TRIPOS>ATOM
      1 CA         28.7845   16.5432   -1.1813 C.3       0 UNK        -0.1979 
      2 C          29.0423   17.6953   -0.2211 C.2       0 UNK         0.4864 
      3 O          29.1393   17.4746    0.9870 O.2       0 UNK        -0.5359 
      4 N          29.1558   18.9183   -0.7481 N.am      1 UNK        -0.4318 
      5 CA         29.4389   20.1460   -0.0077 C.3       1 UNK         0.0824 
      6 C6         28.1783   20.7096    0.7117 C.3       12 UNK        -0.0944 
      7 S7         28.5744   21.5579    2.2790 S.3       12 UNK        -0.2672 
      8 C8         28.1982   23.2960    1.8805 C.3       12 UNK         0.0333 
      9 C9         28.3291   24.1869    3.1055 C.ar      12 UNK        -0.0807 
     10 C10        29.5891   24.4523    3.6507 C.ar      12 UNK        -0.0894 
     11 C11        29.7165   25.2592    4.7846 C.ar      12 UNK        -0.0804 
     12 C12        28.5716   25.8096    5.3697 C.ar      12 UNK        -0.0824 
     13 C13        27.3086   25.5775    4.8133 C.ar      12 UNK        -0.0762 
     14 C14        27.1932   24.7575    3.6866 C.ar      12 UNK        -0.0782 
     15 C15        26.0681   26.2171    5.4218 C.3       12 UNK         0.0230 
     16 S16        26.1021   28.0347    5.2961 S.3       12 UNK        -0.2608 
     17 C17        26.0458   28.3182    3.4883 C.3       12 UNK        -0.0989 
     18 CA         27.4184   28.3554    2.7530 C.3       5 UNK         0.0716 
     19 N          27.2578   28.6506    1.3345 N.am      5 UNK        -0.4135 
     20 C          26.8455   27.8171    0.3768 C.2       4 UNK         0.5031 
     21 O          26.4912   26.6555    0.5860 O.2       4 UNK        -0.5229 
     22 CA         26.7818   28.3776   -1.0617 C.3       4 UNK         0.0329 
     23 CB         27.2987   29.8302   -1.2092 C.3       4 UNK        -0.2001 
     24 N          27.4406   27.4914   -2.0290 N.am      4 UNK        -0.4303 
     25 C          28.7309   27.1288   -2.0321 C.2       3 UNK         0.5044 
     26 O          29.5729   27.5431   -1.2325 O.2       3 UNK        -0.5152 
     27 CA         29.1667   26.1615   -3.1476 C.3       3 UNK         0.0319 
     28 CB         29.7797   26.9364   -4.3254 C.3       3 UNK        -0.2001 
     29 N          30.1442   25.1932   -2.6458 N.am      3 UNK        -0.4354 
     30 C          29.8428   24.2185   -1.7792 C.2       2 UNK         0.4964 
     31 O          28.6888   23.9593   -1.4283 O.2       2 UNK        -0.5047 
     32 CA         31.0344   23.4353   -1.1892 C.3       2 UNK         0.0288 
     33 CB         31.8486   24.3298   -0.2356 C.3       2 UNK        -0.2113 
     34 N          30.6026   22.2480   -0.4475 N.am      2 UNK        -0.4145 
     35 C          30.0478   21.1597   -0.9926 C.2       1 UNK         0.5006 
     36 O          29.9865   20.9530   -2.2099 O.2       1 UNK        -0.5103 
     37 C          28.4150   29.3982    3.2951 C.2       5 UNK         0.5055 
     38 O          28.6881   30.3934    2.6133 O.2       5 UNK        -0.5220 
     39 N          28.9463   29.1534    4.5005 N.am      6 UNK        -0.4450 
     40 CA         29.9934   29.9120    5.1985 C.3       6 UNK         0.0367 
     41 CB         30.1585   29.3551    6.6216 C.3       6 UNK        -0.1929 
     42 C          29.7951   31.4361    5.2598 C.2       6 UNK         0.5070 
     43 O          30.7874   32.1617    5.2789 O.2       6 UNK        -0.5237 
     44 N          28.5384   31.9011    5.2351 N.am      7 UNK        -0.4739 
     45 CA         28.1670   33.3176    5.1386 C.3       7 UNK         0.0276 
     46 CB         26.6365   33.4401    5.2105 C.3       7 UNK        -0.1927 
     47 C          28.7047   34.0267    3.8777 C.2       7 UNK         0.5013 
     48 O          28.9201   35.2387    3.9224 O.2       7 UNK        -0.5193 
     49 N          28.9224   33.2658    2.7963 N.am      8 UNK        -0.4253 
     50 CA         29.5487   33.7233    1.5551 C.3       8 UNK         0.0242 
     51 CB         28.5702   33.5103    0.3878 C.3       8 UNK        -0.2000 
     52 C          30.8696   32.9851    1.2835 C.2       8 UNK         0.4948 
     53 O          31.8187   33.6078    0.8069 O.2       8 UNK        -0.5275 
     54 N          30.9098   31.6761    1.5686 N.am      9 UNK        -0.4246 
     55 CA         32.0190   30.7798    1.2339 C.3       9 UNK         0.0261 
     56 CB         31.4760   29.3445    1.1303 C.3       9 UNK        -0.1959 
     57 C          33.1926   30.8163    2.2256 C.2       9 UNK         0.5033 
     58 O          34.2442   30.2585    1.9072 O.2       9 UNK        -0.5390 
     59 N          32.9967   31.3993    3.4183 N.am      10 UNK        -0.4215 
     60 CA         33.9060   31.4490    4.5755 C.3       10 UNK         0.0240 
     61 CB         35.2363   32.1502    4.2354 C.3       10 UNK        -0.1982 
     62 C          34.1477   30.0866    5.2548 C.2       10 UNK         0.4970 
     63 O          34.1202   30.0235    6.4839 O.2       10 UNK        -0.4916 
     64 N          34.3779   29.0363    4.4562 N.am      11 UNK        -0.4279 
     65 CA         34.6574   27.6489    4.8692 C.3       11 UNK         0.1003 
     66 C          36.0033   27.4618    5.6378 C.2       11 UNK         0.5709 
     67 N          36.9447   28.3954    5.5591 N.am      11 UNK        -0.7358 
     68 O          36.2197   26.4413    6.2878 O.2       11 UNK        -0.4999 
     69 C69        33.4510   26.9705    5.5826 C.3       12 UNK        -0.0954 
     70 S70        31.9682   26.8534    4.5266 S.3       12 UNK        -0.2268 
     71 C71        31.0893   25.5131    5.3875 C.3       12 UNK         0.0203 
     72 H72        29.5890   15.8113   -1.1143 H         1 UNK         0.0888 
     73 H73        27.8486   16.0460   -0.9280 H         1 UNK         0.0888 
     74 H74        28.7192   16.8817   -2.2153 H         1 UNK         0.0888 
     75 H75        29.1242   19.0567   -1.7519 H         1 UNK         0.3017 
     76 H76        30.2101   19.9083    0.7289 H         1 UNK         0.0873 
     77 H77        27.5027   19.8955    0.9786 H         1 UNK         0.0745 
     78 H78        27.5947   21.3611    0.0575 H         1 UNK         0.0745 
     79 H79        27.1950   23.3656    1.4565 H         1 UNK         0.0705 
     80 H80        28.8817   23.6596    1.1170 H         1 UNK         0.0705 
     81 H81        30.4714   24.0194    3.1992 H         1 UNK         0.1334 
     82 H82        28.6616   26.4260    6.2538 H         1 UNK         0.1417 
     83 H83        26.2195   24.5706    3.2541 H         1 UNK         0.1562 
     84 H84        26.0042   25.9376    6.4743 H         1 UNK         0.0748 
     85 H85        25.1583   25.8423    4.9500 H         1 UNK         0.0748 
     86 H86        25.5165   29.2585    3.3234 H         1 UNK         0.0940 
     87 H87        25.4136   27.5476    3.0442 H         1 UNK         0.0940 
     88 H88        27.9050   27.3825    2.8306 H         1 UNK         0.0703 
     89 H89        27.5886   29.5742    1.0843 H         1 UNK         0.3081 
     90 H90        25.7241   28.3820   -1.3293 H         1 UNK         0.0719 
     91 H91        28.3456   29.9298   -0.9191 H         1 UNK         0.0809 
     92 H92        27.2133   30.1707   -2.2412 H         1 UNK         0.0809 
     93 H93        26.7151   30.5233   -0.6019 H         1 UNK         0.0809 
     94 H94        26.8287   27.0709   -2.7144 H         1 UNK         0.2990 
     95 H95        28.2930   25.6142   -3.5087 H         1 UNK         0.0690 
     96 H96        30.0708   26.2660   -5.1343 H         1 UNK         0.0788 
     97 H97        30.6624   27.5009   -4.0213 H         1 UNK         0.0788 
     98 H98        29.0642   27.6493   -4.7378 H         1 UNK         0.0788 
     99 H99        31.1137   25.3795   -2.8569 H         1 UNK         0.2993 
    100 H100       31.6739   23.1127   -2.0138 H         1 UNK         0.0949 
    101 H101       32.6959   23.7910    0.1892 H         1 UNK         0.0767 
    102 H102       32.2516   25.2005   -0.7544 H         1 UNK         0.0767 
    103 H103       31.2386   24.7008    0.5896 H         1 UNK         0.0767 
    104 H104       30.5866   22.3313    0.5583 H         1 UNK         0.3013 
    105 H105       28.6102   28.3303    4.9805 H         1 UNK         0.3121 
    106 H106       30.9224   29.7334    4.6548 H         1 UNK         0.0774 
    107 H107       29.2501   29.4817    7.2118 H         1 UNK         0.0815 
    108 H108       30.4079   28.2952    6.6140 H         1 UNK         0.0815 
    109 H109       30.9660   29.8666    7.1482 H         1 UNK         0.0815 
    110 H110       27.7846   31.2293    5.2169 H         1 UNK         0.2987 
    111 H111       28.5960   33.8291    6.0029 H         1 UNK         0.0949 
    112 H112       26.1509   32.9212    4.3830 H         1 UNK         0.0806 
    113 H113       26.2475   33.0279    6.1417 H         1 UNK         0.0806 
    114 H114       26.3261   34.4852    5.1668 H         1 UNK         0.0806 
    115 H115       28.7137   32.2734    2.8618 H         1 UNK         0.3010 
    116 H116       29.7803   34.7890    1.6142 H         1 UNK         0.0829 
    117 H117       27.6538   34.0828    0.5322 H         1 UNK         0.0813 
    118 H118       29.0102   33.8352   -0.5561 H         1 UNK         0.0813 
    119 H119       28.2946   32.4610    0.2769 H         1 UNK         0.0813 
    120 H120       30.0764   31.2282    1.9456 H         1 UNK         0.3038 
    121 H121       32.4100   31.0652    0.2549 H         1 UNK         0.0769 
    122 H122       30.6262   29.2895    0.4507 H         1 UNK         0.0811 
    123 H123       31.1560   28.9598    2.0991 H         1 UNK         0.0811 
    124 H124       32.2378   28.6632    0.7491 H         1 UNK         0.0811 
    125 H125       32.0845   31.8025    3.5995 H         1 UNK         0.3204 
    126 H126       33.4020   32.0731    5.3146 H         1 UNK         0.0748 
    127 H127       35.8443   32.2819    5.1315 H         1 UNK         0.0771 
    128 H128       35.8335   31.5818    3.5222 H         1 UNK         0.0771 
    129 H129       35.0637   33.1402    3.8133 H         1 UNK         0.0771 
    130 H130       34.4096   29.2193    3.4565 H         1 UNK         0.2980 
    131 H131       34.8155   27.1065    3.9366 H         1 UNK         0.0545 
    132 H132       37.8151   28.2604    6.0487 H         1 UNK         0.3459 
    133 H133       36.7928   29.2301    5.0170 H         1 UNK         0.3459 
    134 H134       33.1895   27.5005    6.4993 H         1 UNK         0.0616 
    135 H135       33.7143   25.9553    5.8841 H         1 UNK         0.0616 
    136 H136       30.9964   25.7649    6.4451 H         1 UNK         0.0634 
    137 H137       31.6866   24.6013    5.3391 H         1 UNK         0.0634 
@<TRIPOS>BOND
     1    1    2 1    
     2    1   72 1    
     3    1   73 1    
     4    1   74 1    
     5    2    3 2    
     6    2    4 am   BACKBONE|DICT|INTERRES
     7    4    5 1    
     8    4   75 1    
     9    5    6 1    
    10    5   35 1    
    11    5   76 1    
    12    6    7 1    
    13    6   77 1    
    14    6   78 1    
    15    7    8 1    
    16    8    9 1    
    17    8   79 1    
    18    8   80 1    
    19    9   10 ar   
    20    9   14 ar   
    21   10   11 ar   
    22   10   81 1    
    23   11   12 ar   
    24   11   71 1    
    25   12   13 ar   
    26   12   82 1    
    27   13   14 ar   
    28   13   15 1    
    29   14   83 1    
    30   15   16 1    
    31   15   84 1    
    32   15   85 1    
    33   16   17 1    
    34   17   18 1    
    35   17   86 1    
    36   17   87 1    
    37   18   19 1    
    38   18   37 1    
    39   18   88 1    
    40   19   20 am   BACKBONE|DICT|INTERRES
    41   19   89 1    
    42   20   21 2    
    43   20   22 1    
    44   22   23 1    
    45   22   24 1    
    46   22   90 1    
    47   23   91 1    
    48   23   92 1    
    49   23   93 1    
    50   24   25 am   BACKBONE|DICT|INTERRES
    51   24   94 1    
    52   25   26 2    
    53   25   27 1    
    54   27   28 1    
    55   27   29 1    
    56   27   95 1    
    57   28   96 1    
    58   28   97 1    
    59   28   98 1    
    60   29   30 am   BACKBONE|DICT|INTERRES
    61   29   99 1    
    62   30   31 2    
    63   30   32 1    
    64   32   33 1    
    65   32   34 1    
    66   32  100 1    
    67   33  101 1    
    68   33  102 1    
    69   33  103 1    
    70   34   35 am   BACKBONE|DICT|INTERRES
    71   34  104 1    
    72   35   36 2    
    73   37   38 2    
    74   37   39 am   BACKBONE|DICT|INTERRES
    75   39   40 1    
    76   39  105 1    
    77   40   41 1    
    78   40   42 1    
    79   40  106 1    
    80   41  107 1    
    81   41  108 1    
    82   41  109 1    
    83   42   43 2    
    84   42   44 am   BACKBONE|DICT|INTERRES
    85   44   45 1    
    86   44  110 1    
    87   45   46 1    
    88   45   47 1    
    89   45  111 1    
    90   46  112 1    
    91   46  113 1    
    92   46  114 1    
    93   47   48 2    
    94   47   49 am   BACKBONE|DICT|INTERRES
    95   49   50 1    
    96   49  115 1    
    97   50   51 1    
    98   50   52 1    
    99   50  116 1    
   100   51  117 1    
   101   51  118 1    
   102   51  119 1    
   103   52   53 2    
   104   52   54 am   BACKBONE|DICT|INTERRES
   105   54   55 1    
   106   54  120 1    
   107   55   56 1    
   108   55   57 1    
   109   55  121 1    
   110   56  122 1    
   111   56  123 1    
   112   56  124 1    
   113   57   58 2    
   114   57   59 am   BACKBONE|DICT|INTERRES
   115   59   60 1    
   116   59  125 1    
   117   60   61 1    
   118   60   62 1    
   119   60  126 1    
   120   61  127 1    
   121   61  128 1    
   122   61  129 1    
   123   62   63 2    
   124   62   64 am   BACKBONE|DICT|INTERRES
   125   64   65 1    
   126   64  130 1    
   127   65   66 1    
   128   65   69 1    
   129   65  131 1    
   130   66   67 am   BACKBONE|DICT|INTERRES
   131   66   68 2    
   132   67  132 1    
   133   67  133 1    
   134   69   70 1    
   135   69  134 1    
   136   69  135 1    
   137   70   71 1    
   138   71  136 1    
   139   71  137 1    
@<TRIPOS>SUBSTRUCTURE
     1 UNK         1 GROUP             0       ****    0 ROOT    
