@<TRIPOS>MOLECULE
3R136
137   139    1
SMALL
USER_CHARGES


@<TRIPOS>ATOM
      1 CA         27.6906   27.3809   -3.0147 C.3       0 UNK        -0.1979 
      2 C          27.5077   26.3182   -1.9425 C.2       0 UNK         0.4864 
      3 O          26.5074   26.3466   -1.2258 O.2       0 UNK        -0.5359 
      4 N          28.4545   25.3727   -1.8489 N.am      1 UNK        -0.4318 
      5 CA         28.5586   24.3133   -0.8306 C.3       1 UNK         0.0824 
      6 C6         29.7587   23.3749   -1.1054 C.3       12 UNK        -0.0944 
      7 S7         31.3359   24.2707   -1.3016 S.3       12 UNK        -0.2672 
      8 C8         32.4697   23.2410   -0.3219 C.3       12 UNK         0.0333 
      9 C9         32.4817   23.6417    1.1456 C.ar      12 UNK        -0.0807 
     10 C10        33.2996   24.6946    1.5652 C.ar      12 UNK        -0.0894 
     11 C11        33.3810   25.0342    2.9174 C.ar      12 UNK        -0.0804 
     12 C12        32.6316   24.3183    3.8530 C.ar      12 UNK        -0.0824 
     13 C13        31.7936   23.2751    3.4456 C.ar      12 UNK        -0.0762 
     14 C14        31.7221   22.9402    2.0888 C.ar      12 UNK        -0.0782 
     15 C15        30.9977   22.4877    4.4792 C.3       12 UNK         0.0230 
     16 S16        29.2635   23.0356    4.5952 S.3       12 UNK        -0.2608 
     17 C17        29.4476   24.7718    5.1271 C.3       12 UNK        -0.0989 
     18 CA         29.0553   25.7430    3.9855 C.3       5 UNK         0.0716 
     19 N          27.6060   25.7178    3.7509 N.am      5 UNK        -0.4135 
     20 C          26.9855   26.1238    2.6377 C.2       4 UNK         0.5031 
     21 O          27.5760   26.5262    1.6337 O.2       4 UNK        -0.5229 
     22 CA         25.4572   26.1756    2.6953 C.3       4 UNK         0.0329 
     23 CB         25.0005   27.5212    3.2953 C.3       4 UNK        -0.2001 
     24 N          24.9031   26.0021    1.3541 N.am      4 UNK        -0.4303 
     25 C          23.6254   25.6942    1.0921 C.2       3 UNK         0.5044 
     26 O          22.7661   25.5322    1.9599 O.2       3 UNK        -0.5152 
     27 CA         23.2373   25.5142   -0.3815 C.3       3 UNK         0.0319 
     28 CB         23.1414   26.8707   -1.1004 C.3       3 UNK        -0.2001 
     29 N          24.1977   24.6503   -1.0653 N.am      3 UNK        -0.4354 
     30 C          24.1131   23.3123   -1.1043 C.2       2 UNK         0.4964 
     31 O          23.1691   22.6734   -0.6374 O.2       2 UNK        -0.5047 
     32 CA         25.2629   22.5433   -1.7810 C.3       2 UNK         0.0288 
     33 CB         24.9028   22.2118   -3.2386 C.3       2 UNK        -0.2113 
     34 N          26.5404   23.2571   -1.7547 N.am      2 UNK        -0.4145 
     35 C          27.2786   23.4681   -0.6547 C.2       1 UNK         0.5006 
     36 O          26.9869   23.0301    0.4591 O.2       1 UNK        -0.5103 
     37 C          29.5293   27.1918    4.2396 C.2       5 UNK         0.5055 
     38 O          29.9485   27.5300    5.3481 O.2       5 UNK        -0.5220 
     39 N          29.4033   28.0286    3.2056 N.am      6 UNK        -0.4450 
     40 CA         29.6652   29.4638    3.2135 C.3       6 UNK         0.0367 
     41 CB         28.3540   30.2144    3.5166 C.3       6 UNK        -0.1929 
     42 C          30.3021   29.8878    1.8814 C.2       6 UNK         0.5070 
     43 O          29.9893   30.9603    1.3627 O.2       6 UNK        -0.5237 
     44 N          31.2022   29.0452    1.3518 N.am      7 UNK        -0.4739 
     45 CA         31.9124   29.2407    0.0799 C.3       7 UNK         0.0276 
     46 CB         32.7538   27.9916   -0.2269 C.3       7 UNK        -0.1927 
     47 C          32.7856   30.5098    0.0326 C.2       7 UNK         0.5013 
     48 O          32.9808   31.0674   -1.0478 O.2       7 UNK        -0.5193 
     49 N          33.2531   30.9594    1.2034 N.am      8 UNK        -0.4253 
     50 CA         33.8810   32.2617    1.4207 C.3       8 UNK         0.0242 
     51 CB         35.4053   32.0995    1.5785 C.3       8 UNK        -0.2000 
     52 C          33.2105   32.9410    2.6253 C.2       8 UNK         0.4948 
     53 O          33.8962   33.3671    3.5560 O.2       8 UNK        -0.5275 
     54 N          31.8687   32.9839    2.6081 N.am      9 UNK        -0.4246 
     55 CA         30.9420   33.5832    3.5829 C.3       9 UNK         0.0261 
     56 CB         31.1780   35.0993    3.7285 C.3       9 UNK        -0.1959 
     57 C          30.9008   32.8979    4.9617 C.2       9 UNK         0.5033 
     58 O          29.8108   32.7021    5.4993 O.2       9 UNK        -0.5390 
     59 N          32.0658   32.5402    5.5059 N.am      10 UNK        -0.4215 
     60 CA         32.2404   31.8629    6.7881 C.3       10 UNK         0.0240 
     61 CB         32.2036   32.8881    7.9402 C.3       10 UNK        -0.1982 
     62 C          33.5408   31.0519    6.7360 C.2       10 UNK         0.4970 
     63 O          34.4587   31.2991    7.5199 O.2       10 UNK        -0.4916 
     64 N          33.6098   30.1242    5.7738 N.am      11 UNK        -0.4279 
     65 CA         34.7834   29.2759    5.5169 C.3       11 UNK         0.1003 
     66 C          35.0027   28.1142    6.5311 C.2       11 UNK         0.5709 
     67 N          34.0560   27.8103    7.4113 N.am      11 UNK        -0.7358 
     68 O          36.0588   27.4864    6.5249 O.2       11 UNK        -0.4999 
     69 C69        34.8200   28.7981    4.0428 C.3       12 UNK        -0.0954 
     70 S70        33.4262   27.7212    3.5658 S.3       12 UNK        -0.2268 
     71 C71        34.3097   26.1454    3.3739 C.3       12 UNK         0.0203 
     72 H72        27.7411   28.3676   -2.5551 H         1 UNK         0.0888 
     73 H73        28.6025   27.2275   -3.5913 H         1 UNK         0.0888 
     74 H74        26.8459   27.3680   -3.7028 H         1 UNK         0.0888 
     75 H75        29.2471   25.4192   -2.4740 H         1 UNK         0.3017 
     76 H76        28.7407   24.8133    0.1214 H         1 UNK         0.0873 
     77 H77        29.5935   22.7927   -2.0143 H         1 UNK         0.0745 
     78 H78        29.8560   22.6503   -0.2951 H         1 UNK         0.0745 
     79 H79        32.2147   22.1862   -0.4363 H         1 UNK         0.0705 
     80 H80        33.4747   23.3493   -0.7327 H         1 UNK         0.0705 
     81 H81        33.8894   25.2365    0.8385 H         1 UNK         0.1334 
     82 H82        32.7100   24.5731    4.9011 H         1 UNK         0.1417 
     83 H83        31.0889   22.1222    1.7733 H         1 UNK         0.1562 
     84 H84        31.4646   22.5640    5.4625 H         1 UNK         0.0748 
     85 H85        31.0138   21.4279    4.2207 H         1 UNK         0.0748 
     86 H86        30.4718   24.9412    5.4595 H         1 UNK         0.0940 
     87 H87        28.8272   24.9398    6.0093 H         1 UNK         0.0940 
     88 H88        29.5606   25.4108    3.0749 H         1 UNK         0.0703 
     89 H89        27.0434   25.4293    4.5377 H         1 UNK         0.3081 
     90 H90        25.1080   25.3549    3.3258 H         1 UNK         0.0719 
     91 H91        25.4381   27.6835    4.2812 H         1 UNK         0.0809 
     92 H92        25.2980   28.3604    2.6651 H         1 UNK         0.0809 
     93 H93        23.9181   27.5623    3.4166 H         1 UNK         0.0809 
     94 H94        25.5680   26.1171    0.5910 H         1 UNK         0.2990 
     95 H95        22.2472   25.0542   -0.4164 H         1 UNK         0.0690 
     96 H96        22.8407   26.7461   -2.1407 H         1 UNK         0.0788 
     97 H97        24.0887   27.4103   -1.0889 H         1 UNK         0.0788 
     98 H98        22.3985   27.5104   -0.6222 H         1 UNK         0.0788 
     99 H99        25.0433   25.1048   -1.3989 H         1 UNK         0.2993 
    100 H100       25.3896   21.6046   -1.2369 H         1 UNK         0.0949 
    101 H101       24.7771   23.1138   -3.8390 H         1 UNK         0.0767 
    102 H102       25.6721   21.5984   -3.7083 H         1 UNK         0.0767 
    103 H103       23.9678   21.6520   -3.2917 H         1 UNK         0.0767 
    104 H104       26.8588   23.6574   -2.6253 H         1 UNK         0.3013 
    105 H105       28.9878   27.6547    2.3541 H         1 UNK         0.3121 
    106 H106       30.3904   29.7029    3.9940 H         1 UNK         0.0774 
    107 H107       28.5077   31.2935    3.5313 H         1 UNK         0.0815 
    108 H108       27.5899   30.0037    2.7675 H         1 UNK         0.0815 
    109 H109       27.9547   29.9348    4.4916 H         1 UNK         0.0815 
    110 H110       31.4187   28.1993    1.8618 H         1 UNK         0.2987 
    111 H111       31.1556   29.3431   -0.7008 H         1 UNK         0.0949 
    112 H112       33.5391   27.8403    0.5143 H         1 UNK         0.0806 
    113 H113       32.1372   27.0930   -0.2519 H         1 UNK         0.0806 
    114 H114       33.2383   28.0772   -1.2005 H         1 UNK         0.0806 
    115 H115       33.0372   30.4207    2.0299 H         1 UNK         0.3010 
    116 H116       33.6985   32.9127    0.5628 H         1 UNK         0.0829 
    117 H117       35.6698   31.5455    2.4781 H         1 UNK         0.0813 
    118 H118       35.8915   33.0735    1.6472 H         1 UNK         0.0813 
    119 H119       35.8395   31.5811    0.7236 H         1 UNK         0.0813 
    120 H120       31.4019   32.5242    1.8327 H         1 UNK         0.3038 
    121 H121       29.9496   33.4522    3.1481 H         1 UNK         0.0769 
    122 H122       31.1191   35.6039    2.7641 H         1 UNK         0.0811 
    123 H123       32.1518   35.3228    4.1652 H         1 UNK         0.0811 
    124 H124       30.4238   35.5490    4.3757 H         1 UNK         0.0811 
    125 H125       32.9137   32.7634    4.9835 H         1 UNK         0.3204 
    126 H126       31.4261   31.1495    6.9340 H         1 UNK         0.0748 
    127 H127       32.9853   33.6412    7.8333 H         1 UNK         0.0771 
    128 H128       31.2449   33.4054    7.9808 H         1 UNK         0.0771 
    129 H129       32.3470   32.3989    8.9045 H         1 UNK         0.0771 
    130 H130       32.8037   29.9507    5.1934 H         1 UNK         0.2980 
    131 H131       35.6588   29.9165    5.6415 H         1 UNK         0.0545 
    132 H132       34.2141   27.0613    8.0662 H         1 UNK         0.3459 
    133 H133       33.1822   28.3101    7.4161 H         1 UNK         0.3459 
    134 H134       35.7678   28.3002    3.8307 H         1 UNK         0.0616 
    135 H135       34.7992   29.6626    3.3820 H         1 UNK         0.0616 
    136 H136       34.7752   25.8732    4.3225 H         1 UNK         0.0634 
    137 H137       35.1217   26.2724    2.6562 H         1 UNK         0.0634 
@<TRIPOS>BOND
     1    1    2 1    
     2    1   72 1    
     3    1   73 1    
     4    1   74 1    
     5    2    3 2    
     6    2    4 am   BACKBONE|DICT|INTERRES
     7    4    5 1    
     8    4   75 1    
     9    5    6 1    
    10    5   35 1    
    11    5   76 1    
    12    6    7 1    
    13    6   77 1    
    14    6   78 1    
    15    7    8 1    
    16    8    9 1    
    17    8   79 1    
    18    8   80 1    
    19    9   10 ar   
    20    9   14 ar   
    21   10   11 ar   
    22   10   81 1    
    23   11   12 ar   
    24   11   71 1    
    25   12   13 ar   
    26   12   82 1    
    27   13   14 ar   
    28   13   15 1    
    29   14   83 1    
    30   15   16 1    
    31   15   84 1    
    32   15   85 1    
    33   16   17 1    
    34   17   18 1    
    35   17   86 1    
    36   17   87 1    
    37   18   19 1    
    38   18   37 1    
    39   18   88 1    
    40   19   20 am   BACKBONE|DICT|INTERRES
    41   19   89 1    
    42   20   21 2    
    43   20   22 1    
    44   22   23 1    
    45   22   24 1    
    46   22   90 1    
    47   23   91 1    
    48   23   92 1    
    49   23   93 1    
    50   24   25 am   BACKBONE|DICT|INTERRES
    51   24   94 1    
    52   25   26 2    
    53   25   27 1    
    54   27   28 1    
    55   27   29 1    
    56   27   95 1    
    57   28   96 1    
    58   28   97 1    
    59   28   98 1    
    60   29   30 am   BACKBONE|DICT|INTERRES
    61   29   99 1    
    62   30   31 2    
    63   30   32 1    
    64   32   33 1    
    65   32   34 1    
    66   32  100 1    
    67   33  101 1    
    68   33  102 1    
    69   33  103 1    
    70   34   35 am   BACKBONE|DICT|INTERRES
    71   34  104 1    
    72   35   36 2    
    73   37   38 2    
    74   37   39 am   BACKBONE|DICT|INTERRES
    75   39   40 1    
    76   39  105 1    
    77   40   41 1    
    78   40   42 1    
    79   40  106 1    
    80   41  107 1    
    81   41  108 1    
    82   41  109 1    
    83   42   43 2    
    84   42   44 am   BACKBONE|DICT|INTERRES
    85   44   45 1    
    86   44  110 1    
    87   45   46 1    
    88   45   47 1    
    89   45  111 1    
    90   46  112 1    
    91   46  113 1    
    92   46  114 1    
    93   47   48 2    
    94   47   49 am   BACKBONE|DICT|INTERRES
    95   49   50 1    
    96   49  115 1    
    97   50   51 1    
    98   50   52 1    
    99   50  116 1    
   100   51  117 1    
   101   51  118 1    
   102   51  119 1    
   103   52   53 2    
   104   52   54 am   BACKBONE|DICT|INTERRES
   105   54   55 1    
   106   54  120 1    
   107   55   56 1    
   108   55   57 1    
   109   55  121 1    
   110   56  122 1    
   111   56  123 1    
   112   56  124 1    
   113   57   58 2    
   114   57   59 am   BACKBONE|DICT|INTERRES
   115   59   60 1    
   116   59  125 1    
   117   60   61 1    
   118   60   62 1    
   119   60  126 1    
   120   61  127 1    
   121   61  128 1    
   122   61  129 1    
   123   62   63 2    
   124   62   64 am   BACKBONE|DICT|INTERRES
   125   64   65 1    
   126   64  130 1    
   127   65   66 1    
   128   65   69 1    
   129   65  131 1    
   130   66   67 am   BACKBONE|DICT|INTERRES
   131   66   68 2    
   132   67  132 1    
   133   67  133 1    
   134   69   70 1    
   135   69  134 1    
   136   69  135 1    
   137   70   71 1    
   138   71  136 1    
   139   71  137 1    
@<TRIPOS>SUBSTRUCTURE
     1 UNK         1 GROUP             0       ****    0 ROOT    
