@<TRIPOS>MOLECULE
3R136
137   139    1
SMALL
USER_CHARGES


@<TRIPOS>ATOM
      1 CA         26.0031   18.5381    2.5332 C.3       0 UNK        -0.1979 
      2 C          26.7254   19.7894    2.0559 C.2       0 UNK         0.4864 
      3 O          26.1538   20.8790    2.1037 O.2       0 UNK        -0.5359 
      4 N          27.9725   19.6387    1.5911 N.am      1 UNK        -0.4318 
      5 CA         28.8498   20.7270    1.1492 C.3       1 UNK         0.0824 
      6 C6         30.0198   20.1699    0.2892 C.3       12 UNK        -0.0944 
      7 S7         30.4907   21.2704   -1.0877 S.3       12 UNK        -0.2672 
      8 C8         32.2662   21.5462   -0.7932 C.3       12 UNK         0.0333 
      9 C9         32.5349   22.8722   -0.0962 C.ar      12 UNK        -0.0807 
     10 C10        32.4506   22.9723    1.2963 C.ar      12 UNK        -0.0894 
     11 C11        32.7441   24.1788    1.9393 C.ar      12 UNK        -0.0804 
     12 C12        33.1586   25.2767    1.1799 C.ar      12 UNK        -0.0824 
     13 C13        33.2234   25.1998   -0.2130 C.ar      12 UNK        -0.0762 
     14 C14        32.9052   23.9944   -0.8463 C.ar      12 UNK        -0.0782 
     15 C15        33.6706   26.4065   -1.0279 C.3       12 UNK         0.0230 
     16 S16        32.2673   27.3963   -1.6407 S.3       12 UNK        -0.2608 
     17 C17        31.6846   28.2419   -0.1292 C.3       12 UNK        -0.0989 
     18 CA         30.1661   28.0283    0.1126 C.3       5 UNK         0.0716 
     19 N          29.8030   27.9637    1.5344 N.am      5 UNK        -0.4135 
     20 C          29.7843   28.9683    2.4244 C.2       4 UNK         0.5031 
     21 O          30.2044   30.1047    2.1997 O.2       4 UNK        -0.5229 
     22 CA         29.1570   28.6453    3.7970 C.3       4 UNK         0.0329 
     23 CB         28.7267   29.9071    4.5714 C.3       4 UNK        -0.2001 
     24 N          28.0442   27.6914    3.7134 N.am      4 UNK        -0.4303 
     25 C          26.9114   27.8191    3.0083 C.2       3 UNK         0.5044 
     26 O          26.6394   28.8045    2.3200 O.2       3 UNK        -0.5152 
     27 CA         25.9756   26.5948    3.0084 C.3       3 UNK         0.0319 
     28 CB         24.6099   26.9022    2.3664 C.3       3 UNK        -0.2001 
     29 N          26.5891   25.4643    2.3030 N.am      3 UNK        -0.4354 
     30 C          27.5811   24.7023    2.7825 C.2       2 UNK         0.4964 
     31 O          28.0562   24.8339    3.9144 O.2       2 UNK        -0.5047 
     32 CA         28.1733   23.6659    1.8210 C.3       2 UNK         0.0288 
     33 CB         28.9834   24.3543    0.7064 C.3       2 UNK        -0.2113 
     34 N          29.0476   22.7851    2.5905 N.am      2 UNK        -0.4145 
     35 C          29.3563   21.4972    2.3940 C.2       1 UNK         0.5006 
     36 O          30.0446   20.8838    3.2115 O.2       1 UNK        -0.5103 
     37 C          29.2591   29.0110   -0.6656 C.2       5 UNK         0.5055 
     38 O          29.7523   29.8815   -1.3836 O.2       5 UNK        -0.5220 
     39 N          27.9386   28.8507   -0.4824 N.am      6 UNK        -0.4450 
     40 CA         26.8558   29.6761   -1.0304 C.3       6 UNK         0.0367 
     41 CB         26.8076   29.5931   -2.5717 C.3       6 UNK        -0.1929 
     42 C          26.9089   31.1190   -0.4951 C.2       6 UNK         0.5070 
     43 O          26.9304   32.0725   -1.2754 O.2       6 UNK        -0.5237 
     44 N          26.9252   31.2348    0.8412 N.am      7 UNK        -0.4739 
     45 CA         26.9434   32.4760    1.6259 C.3       7 UNK         0.0276 
     46 CB         25.6250   33.2585    1.4428 C.3       7 UNK        -0.1927 
     47 C          28.1962   33.3454    1.3896 C.2       7 UNK         0.5013 
     48 O          28.1054   34.5739    1.4198 O.2       7 UNK        -0.5193 
     49 N          29.3523   32.6969    1.1946 N.am      8 UNK        -0.4253 
     50 CA         30.6619   33.3411    1.0469 C.3       8 UNK         0.0242 
     51 CB         31.5134   32.5110    0.0718 C.3       8 UNK        -0.2000 
     52 C          31.3928   33.5132    2.3934 C.2       8 UNK         0.4948 
     53 O          32.5238   34.0006    2.3982 O.2       8 UNK        -0.5275 
     54 N          30.7527   33.0966    3.4982 N.am      9 UNK        -0.4246 
     55 CA         31.2584   33.0711    4.8777 C.3       9 UNK         0.0261 
     56 CB         31.5922   34.4913    5.3844 C.3       9 UNK        -0.1959 
     57 C          32.4123   32.0680    5.0850 C.2       9 UNK         0.5033 
     58 O          33.2444   32.2676    5.9729 O.2       9 UNK        -0.5390 
     59 N          32.4332   31.0000    4.2763 N.am      10 UNK        -0.4215 
     60 CA         33.3691   29.8811    4.3884 C.3       10 UNK         0.0240 
     61 CB         33.6102   29.3149    2.9780 C.3       10 UNK        -0.1982 
     62 C          32.8315   28.7994    5.3475 C.2       10 UNK         0.4970 
     63 O          31.8137   29.0041    6.0122 O.2       10 UNK        -0.4916 
     64 N          33.5260   27.6551    5.3795 N.am      11 UNK        -0.4279 
     65 CA         33.1760   26.4342    6.1317 C.3       11 UNK         0.1003 
     66 C          33.3288   26.5477    7.6795 C.2       11 UNK         0.5709 
     67 N          33.9776   27.5784    8.2082 N.am      11 UNK        -0.7358 
     68 O          32.8854   25.6693    8.4158 O.2       11 UNK        -0.4999 
     69 C69        31.8117   25.7974    5.7163 C.3       12 UNK        -0.0954 
     70 S70        31.5339   25.6799    3.9166 S.3       12 UNK        -0.2268 
     71 C71        32.6324   24.3038    3.4524 C.3       12 UNK         0.0203 
     72 H72        25.7336   18.6389    3.5842 H         1 UNK         0.0888 
     73 H73        25.0886   18.3911    1.9592 H         1 UNK         0.0888 
     74 H74        26.6182   17.6449    2.4251 H         1 UNK         0.0888 
     75 H75        28.3952   18.7216    1.6107 H         1 UNK         0.3017 
     76 H76        28.2494   21.3725    0.5098 H         1 UNK         0.0873 
     77 H77        29.7214   19.2335   -0.1856 H         1 UNK         0.0745 
     78 H78        30.8883   19.9094    0.8967 H         1 UNK         0.0745 
     79 H79        32.7763   21.5278   -1.7576 H         1 UNK         0.0705 
     80 H80        32.6972   20.7243   -0.2202 H         1 UNK         0.0705 
     81 H81        32.1629   22.1080    1.8781 H         1 UNK         0.1334 
     82 H82        33.4197   26.1970    1.6826 H         1 UNK         0.1417 
     83 H83        32.9654   23.9257   -1.9242 H         1 UNK         0.1562 
     84 H84        34.2572   26.0690   -1.8837 H         1 UNK         0.0748 
     85 H85        34.3362   27.0419   -0.4413 H         1 UNK         0.0748 
     86 H86        31.9511   29.2984   -0.1701 H         1 UNK         0.0940 
     87 H87        32.2426   27.8392    0.7096 H         1 UNK         0.0940 
     88 H88        29.9136   27.0393   -0.2721 H         1 UNK         0.0703 
     89 H89        29.4702   27.0679    1.8569 H         1 UNK         0.3081 
     90 H90        29.9340   28.1505    4.3779 H         1 UNK         0.0719 
     91 H91        28.2899   29.6476    5.5355 H         1 UNK         0.0809 
     92 H92        27.9940   30.4934    4.0184 H         1 UNK         0.0809 
     93 H93        29.5822   30.5485    4.7743 H         1 UNK         0.0809 
     94 H94        28.1924   26.7971    4.1742 H         1 UNK         0.2990 
     95 H95        25.8009   26.3125    4.0489 H         1 UNK         0.0690 
     96 H96        23.9385   26.0460    2.4337 H         1 UNK         0.0788 
     97 H97        24.7059   27.1717    1.3137 H         1 UNK         0.0788 
     98 H98        24.1208   27.7361    2.8720 H         1 UNK         0.0788 
     99 H99        26.2595   25.2956    1.3631 H         1 UNK         0.2993 
    100 H100       27.3336   23.1134    1.3994 H         1 UNK         0.0949 
    101 H101       29.8453   24.8885    1.1086 H         1 UNK         0.0767 
    102 H102       29.3597   23.6347   -0.0166 H         1 UNK         0.0767 
    103 H103       28.3761   25.0687    0.1501 H         1 UNK         0.0767 
    104 H104       29.3560   23.2214    3.4507 H         1 UNK         0.3013 
    105 H105       27.6390   28.1533    0.1836 H         1 UNK         0.3121 
    106 H106       25.9252   29.2478   -0.6539 H         1 UNK         0.0774 
    107 H107       25.9330   30.1161   -2.9602 H         1 UNK         0.0815 
    108 H108       27.6849   30.0464   -3.0337 H         1 UNK         0.0815 
    109 H109       26.7449   28.5596   -2.9119 H         1 UNK         0.0815 
    110 H110       26.8880   30.3734    1.3862 H         1 UNK         0.2987 
    111 H111       26.9890   32.1696    2.6712 H         1 UNK         0.0949 
    112 H112       25.5277   33.6587    0.4332 H         1 UNK         0.0806 
    113 H113       24.7585   32.6272    1.6390 H         1 UNK         0.0806 
    114 H114       25.5708   34.1021    2.1321 H         1 UNK         0.0806 
    115 H115       29.3629   31.6819    1.2272 H         1 UNK         0.3010 
    116 H116       30.5322   34.3369    0.6179 H         1 UNK         0.0829 
    117 H117       31.0021   32.3673   -0.8803 H         1 UNK         0.0813 
    118 H118       32.4623   33.0047   -0.1409 H         1 UNK         0.0813 
    119 H119       31.7428   31.5276    0.4809 H         1 UNK         0.0813 
    120 H120       29.8363   32.6960    3.3616 H         1 UNK         0.3038 
    121 H121       30.4352   32.7017    5.4906 H         1 UNK         0.0769 
    122 H122       32.4703   34.9048    4.8879 H         1 UNK         0.0811 
    123 H123       30.7604   35.1769    5.2231 H         1 UNK         0.0811 
    124 H124       31.8013   34.4844    6.4548 H         1 UNK         0.0811 
    125 H125       31.6946   30.8987    3.5898 H         1 UNK         0.3204 
    126 H126       34.3205   30.2424    4.7842 H         1 UNK         0.0748 
    127 H127       34.4477   28.6171    2.9599 H         1 UNK         0.0771 
    128 H128       32.7311   28.7820    2.6233 H         1 UNK         0.0771 
    129 H129       33.8373   30.1045    2.2610 H         1 UNK         0.0771 
    130 H130       34.3638   27.5861    4.8212 H         1 UNK         0.2980 
    131 H131       33.9488   25.7183    5.8529 H         1 UNK         0.0545 
    132 H132       34.0810   27.6351    9.2090 H         1 UNK         0.3459 
    133 H133       34.3514   28.3044    7.6190 H         1 UNK         0.3459 
    134 H134       31.7147   24.7952    6.1373 H         1 UNK         0.0616 
    135 H135       30.9867   26.3774    6.1329 H         1 UNK         0.0616 
    136 H136       32.2532   23.3819    3.8960 H         1 UNK         0.0634 
    137 H137       33.6284   24.4696    3.8632 H         1 UNK         0.0634 
@<TRIPOS>BOND
     1    1    2 1    
     2    1   72 1    
     3    1   73 1    
     4    1   74 1    
     5    2    3 2    
     6    2    4 am   BACKBONE|DICT|INTERRES
     7    4    5 1    
     8    4   75 1    
     9    5    6 1    
    10    5   35 1    
    11    5   76 1    
    12    6    7 1    
    13    6   77 1    
    14    6   78 1    
    15    7    8 1    
    16    8    9 1    
    17    8   79 1    
    18    8   80 1    
    19    9   10 ar   
    20    9   14 ar   
    21   10   11 ar   
    22   10   81 1    
    23   11   12 ar   
    24   11   71 1    
    25   12   13 ar   
    26   12   82 1    
    27   13   14 ar   
    28   13   15 1    
    29   14   83 1    
    30   15   16 1    
    31   15   84 1    
    32   15   85 1    
    33   16   17 1    
    34   17   18 1    
    35   17   86 1    
    36   17   87 1    
    37   18   19 1    
    38   18   37 1    
    39   18   88 1    
    40   19   20 am   BACKBONE|DICT|INTERRES
    41   19   89 1    
    42   20   21 2    
    43   20   22 1    
    44   22   23 1    
    45   22   24 1    
    46   22   90 1    
    47   23   91 1    
    48   23   92 1    
    49   23   93 1    
    50   24   25 am   BACKBONE|DICT|INTERRES
    51   24   94 1    
    52   25   26 2    
    53   25   27 1    
    54   27   28 1    
    55   27   29 1    
    56   27   95 1    
    57   28   96 1    
    58   28   97 1    
    59   28   98 1    
    60   29   30 am   BACKBONE|DICT|INTERRES
    61   29   99 1    
    62   30   31 2    
    63   30   32 1    
    64   32   33 1    
    65   32   34 1    
    66   32  100 1    
    67   33  101 1    
    68   33  102 1    
    69   33  103 1    
    70   34   35 am   BACKBONE|DICT|INTERRES
    71   34  104 1    
    72   35   36 2    
    73   37   38 2    
    74   37   39 am   BACKBONE|DICT|INTERRES
    75   39   40 1    
    76   39  105 1    
    77   40   41 1    
    78   40   42 1    
    79   40  106 1    
    80   41  107 1    
    81   41  108 1    
    82   41  109 1    
    83   42   43 2    
    84   42   44 am   BACKBONE|DICT|INTERRES
    85   44   45 1    
    86   44  110 1    
    87   45   46 1    
    88   45   47 1    
    89   45  111 1    
    90   46  112 1    
    91   46  113 1    
    92   46  114 1    
    93   47   48 2    
    94   47   49 am   BACKBONE|DICT|INTERRES
    95   49   50 1    
    96   49  115 1    
    97   50   51 1    
    98   50   52 1    
    99   50  116 1    
   100   51  117 1    
   101   51  118 1    
   102   51  119 1    
   103   52   53 2    
   104   52   54 am   BACKBONE|DICT|INTERRES
   105   54   55 1    
   106   54  120 1    
   107   55   56 1    
   108   55   57 1    
   109   55  121 1    
   110   56  122 1    
   111   56  123 1    
   112   56  124 1    
   113   57   58 2    
   114   57   59 am   BACKBONE|DICT|INTERRES
   115   59   60 1    
   116   59  125 1    
   117   60   61 1    
   118   60   62 1    
   119   60  126 1    
   120   61  127 1    
   121   61  128 1    
   122   61  129 1    
   123   62   63 2    
   124   62   64 am   BACKBONE|DICT|INTERRES
   125   64   65 1    
   126   64  130 1    
   127   65   66 1    
   128   65   69 1    
   129   65  131 1    
   130   66   67 am   BACKBONE|DICT|INTERRES
   131   66   68 2    
   132   67  132 1    
   133   67  133 1    
   134   69   70 1    
   135   69  134 1    
   136   69  135 1    
   137   70   71 1    
   138   71  136 1    
   139   71  137 1    
@<TRIPOS>SUBSTRUCTURE
     1 UNK         1 GROUP             0       ****    0 ROOT    
