@<TRIPOS>MOLECULE
3R136
137   139    1
SMALL
USER_CHARGES


@<TRIPOS>ATOM
      1 CA         27.3565   21.4914   -1.3916 C.3       0 UNK        -0.1979 
      2 C          27.3264   21.8919    0.0761 C.2       0 UNK         0.4864 
      3 O          26.4365   21.4554    0.8065 O.2       0 UNK        -0.5359 
      4 N          28.2882   22.7263    0.4996 N.am      1 UNK        -0.4318 
      5 CA         28.4747   23.2246    1.8737 C.3       1 UNK         0.0824 
      6 C6         28.8681   22.1191    2.8953 C.3       12 UNK        -0.0944 
      7 S7         30.3211   21.1328    2.3951 S.3       12 UNK        -0.2672 
      8 C8         31.7094   22.0092    3.2061 C.3       12 UNK         0.0333 
      9 C9         32.3367   23.1567    2.4068 C.ar      12 UNK        -0.0807 
     10 C10        33.1939   24.0447    3.0677 C.ar      12 UNK        -0.0894 
     11 C11        33.8445   25.0704    2.3719 C.ar      12 UNK        -0.0804 
     12 C12        33.6263   25.2138    0.9995 C.ar      12 UNK        -0.0824 
     13 C13        32.7588   24.3502    0.3270 C.ar      12 UNK        -0.0762 
     14 C14        32.1316   23.3178    1.0303 C.ar      12 UNK        -0.0782 
     15 C15        32.5012   24.5216   -1.1639 C.3       12 UNK         0.0230 
     16 S16        31.7116   26.1153   -1.5658 S.3       12 UNK        -0.2608 
     17 C17        30.2285   26.1274   -0.5020 C.3       12 UNK        -0.0989 
     18 CA         30.1322   27.4515    0.3097 C.3       5 UNK         0.0716 
     19 N          29.0783   28.3165   -0.2050 N.am      5 UNK        -0.4135 
     20 C          29.1707   29.1613   -1.2361 C.2       4 UNK         0.5031 
     21 O          30.2102   29.3767   -1.8609 O.2       4 UNK        -0.5229 
     22 CA         27.8615   29.8737   -1.6356 C.3       4 UNK         0.0329 
     23 CB         27.9440   30.5578   -3.0169 C.3       4 UNK        -0.2001 
     24 N          26.6904   28.9863   -1.5615 N.am      4 UNK        -0.4303 
     25 C          26.4965   27.8376   -2.2282 C.2       3 UNK         0.5044 
     26 O          27.2908   27.3632   -3.0417 O.2       3 UNK        -0.5152 
     27 CA         25.2078   27.0674   -1.8848 C.3       3 UNK         0.0319 
     28 CB         24.7687   26.1299   -3.0251 C.3       3 UNK        -0.2001 
     29 N          25.3632   26.2790   -0.6596 N.am      3 UNK        -0.4354 
     30 C          25.4114   26.7852    0.5815 C.2       2 UNK         0.4964 
     31 O          25.3321   27.9874    0.8312 O.2       2 UNK        -0.5047 
     32 CA         25.5832   25.7862    1.7292 C.3       2 UNK         0.0288 
     33 CB         24.2631   25.0378    2.0044 C.3       2 UNK        -0.2113 
     34 N          26.6766   24.8540    1.4467 N.am      2 UNK        -0.4145 
     35 C          27.2845   24.0870    2.3630 C.2       1 UNK         0.5006 
     36 O          26.9469   24.0526    3.5483 O.2       1 UNK        -0.5103 
     37 C          29.8378   27.2288    1.8028 C.2       5 UNK         0.5055 
     38 O          28.7060   27.4586    2.2408 O.2       5 UNK        -0.5220 
     39 N          30.8608   26.8053    2.5580 N.am      6 UNK        -0.4450 
     40 CA         30.8743   26.6844    4.0218 C.3       6 UNK         0.0367 
     41 CB         29.9670   25.5321    4.4978 C.3       6 UNK        -0.1929 
     42 C          30.5788   28.0414    4.6845 C.2       6 UNK         0.5070 
     43 O          31.2558   29.0190    4.3622 O.2       6 UNK        -0.5237 
     44 N          29.5668   28.1043    5.5603 N.am      7 UNK        -0.4739 
     45 CA         29.1445   29.3118    6.2775 C.3       7 UNK         0.0276 
     46 CB         27.9827   28.9644    7.2210 C.3       7 UNK        -0.1927 
     47 C          28.7610   30.4871    5.3607 C.2       7 UNK         0.5013 
     48 O          29.0169   31.6347    5.7238 O.2       7 UNK        -0.5193 
     49 N          28.2161   30.1889    4.1716 N.am      8 UNK        -0.4253 
     50 CA         27.8757   31.1845    3.1501 C.3       8 UNK         0.0242 
     51 CB         26.9273   30.5554    2.1197 C.3       8 UNK        -0.2000 
     52 C          29.1038   31.8065    2.4574 C.2       8 UNK         0.4948 
     53 O          28.9791   32.8953    1.8968 O.2       8 UNK        -0.5275 
     54 N          30.2589   31.1290    2.5181 N.am      9 UNK        -0.4246 
     55 CA         31.5542   31.6295    2.0473 C.3       9 UNK         0.0261 
     56 CB         32.2258   30.5355    1.2013 C.3       9 UNK        -0.1959 
     57 C          32.4687   32.0567    3.2123 C.2       9 UNK         0.5033 
     58 O          33.5957   32.4842    2.9578 O.2       9 UNK        -0.5390 
     59 N          31.9824   31.9260    4.4571 N.am      10 UNK        -0.4215 
     60 CA         32.6843   32.1407    5.7261 C.3       10 UNK         0.0240 
     61 CB         33.0110   33.6365    5.9259 C.3       10 UNK        -0.1982 
     62 C          33.9099   31.2200    5.9094 C.2       10 UNK         0.4970 
     63 O          34.9190   31.6591    6.4655 O.2       10 UNK        -0.4916 
     64 N          33.7996   29.9652    5.4543 N.am      11 UNK        -0.4279 
     65 CA         34.8267   28.9218    5.5891 C.3       11 UNK         0.1003 
     66 C          34.3254   27.7159    6.4309 C.2       11 UNK         0.5709 
     67 N          35.2138   26.7957    6.7828 N.am      11 UNK        -0.7358 
     68 O          33.1509   27.6008    6.7759 O.2       11 UNK        -0.4999 
     69 C69        35.4170   28.5149    4.2092 C.3       12 UNK        -0.0954 
     70 S70        34.2271   27.7307    3.0682 S.3       12 UNK        -0.2268 
     71 C71        34.8053   26.0048    3.0942 C.3       12 UNK         0.0203 
     72 H72        26.4188   21.7666   -1.8758 H         1 UNK         0.0888 
     73 H73        28.1716   21.9743   -1.9318 H         1 UNK         0.0888 
     74 H74        27.4828   20.4120   -1.4817 H         1 UNK         0.0888 
     75 H75        28.9883   23.0214   -0.1651 H         1 UNK         0.3017 
     76 H76        29.3151   23.9166    1.8282 H         1 UNK         0.0873 
     77 H77        29.0607   22.5465    3.8803 H         1 UNK         0.0745 
     78 H78        28.0352   21.4281    3.0360 H         1 UNK         0.0745 
     79 H79        31.3887   22.3667    4.1855 H         1 UNK         0.0705 
     80 H80        32.4936   21.2755    3.3969 H         1 UNK         0.0705 
     81 H81        33.3709   23.9234    4.1279 H         1 UNK         0.1334 
     82 H82        34.1260   26.0040    0.4549 H         1 UNK         0.1417 
     83 H83        31.4922   22.6340    0.4916 H         1 UNK         0.1562 
     84 H84        31.8754   23.7149   -1.5487 H         1 UNK         0.0748 
     85 H85        33.4492   24.4534   -1.6993 H         1 UNK         0.0748 
     86 H86        30.2449   25.2524    0.1452 H         1 UNK         0.0940 
     87 H87        29.3544   25.9882   -1.1413 H         1 UNK         0.0940 
     88 H88        31.0769   27.9960    0.2641 H         1 UNK         0.0703 
     89 H89        28.2096   28.2437    0.3094 H         1 UNK         0.3081 
     90 H90        27.7046   30.6567   -0.8926 H         1 UNK         0.0719 
     91 H91        28.1563   29.8417   -3.8115 H         1 UNK         0.0809 
     92 H92        27.0128   31.0675   -3.2639 H         1 UNK         0.0809 
     93 H93        28.7368   31.3068   -3.0351 H         1 UNK         0.0809 
     94 H94        26.0023   29.2216   -0.8550 H         1 UNK         0.2990 
     95 H95        24.4099   27.7979   -1.7325 H         1 UNK         0.0690 
     96 H96        23.8105   25.6590   -2.8046 H         1 UNK         0.0788 
     97 H97        25.4975   25.3386   -3.2060 H         1 UNK         0.0788 
     98 H98        24.6493   26.6819   -3.9585 H         1 UNK         0.0788 
     99 H99        25.3892   25.2774   -0.7792 H         1 UNK         0.2993 
    100 H100       25.8509   26.3639    2.6174 H         1 UNK         0.0949 
    101 H101       24.3275   24.4323    2.9084 H         1 UNK         0.0767 
    102 H102       23.4388   25.7380    2.1475 H         1 UNK         0.0767 
    103 H103       23.9933   24.3761    1.1805 H         1 UNK         0.0767 
    104 H104       27.0356   24.8527    0.5038 H         1 UNK         0.3013 
    105 H105       31.7590   26.6588    2.1159 H         1 UNK         0.3121 
    106 H106       31.8947   26.4307    4.3087 H         1 UNK         0.0774 
    107 H107       30.0710   25.3649    5.5706 H         1 UNK         0.0815 
    108 H108       28.9146   25.7227    4.2895 H         1 UNK         0.0815 
    109 H109       30.2427   24.6013    4.0076 H         1 UNK         0.0815 
    110 H110       29.0497   27.2585    5.7520 H         1 UNK         0.2987 
    111 H111       29.9921   29.6398    6.8835 H         1 UNK         0.0949 
    112 H112       27.1148   28.5931    6.6744 H         1 UNK         0.0806 
    113 H113       28.2736   28.2051    7.9472 H         1 UNK         0.0806 
    114 H114       27.6620   29.8418    7.7848 H         1 UNK         0.0806 
    115 H115       28.0783   29.2155    3.9299 H         1 UNK         0.3010 
    116 H116       27.3405   31.9999    3.6419 H         1 UNK         0.0829 
    117 H117       27.3920   29.7169    1.6047 H         1 UNK         0.0813 
    118 H118       26.0144   30.1902    2.5907 H         1 UNK         0.0813 
    119 H119       26.6301   31.2831    1.3635 H         1 UNK         0.0813 
    120 H120       30.2888   30.2502    3.0251 H         1 UNK         0.3038 
    121 H121       31.4182   32.5090    1.4148 H         1 UNK         0.0769 
    122 H122       32.3407   29.6089    1.7632 H         1 UNK         0.0811 
    123 H123       33.2189   30.8414    0.8696 H         1 UNK         0.0811 
    124 H124       31.6437   30.3219    0.3061 H         1 UNK         0.0811 
    125 H125       31.0396   31.5727    4.5497 H         1 UNK         0.3204 
    126 H126       31.9793   31.8538    6.5078 H         1 UNK         0.0748 
    127 H127       32.1205   34.2547    5.8116 H         1 UNK         0.0771 
    128 H128       33.4053   33.8216    6.9259 H         1 UNK         0.0771 
    129 H129       33.7571   33.9872    5.2122 H         1 UNK         0.0771 
    130 H130       32.9216   29.6557    5.0435 H         1 UNK         0.2980 
    131 H131       35.6565   29.3269    6.1704 H         1 UNK         0.0545 
    132 H132       34.9077   26.0102    7.3348 H         1 UNK         0.3459 
    133 H133       36.1842   26.8777    6.5239 H         1 UNK         0.3459 
    134 H134       36.2792   27.8598    4.3425 H         1 UNK         0.0616 
    135 H135       35.8078   29.4036    3.7116 H         1 UNK         0.0616 
    136 H136       35.7873   25.9481    2.6225 H         1 UNK         0.0634 
    137 H137       34.9379   25.6868    4.1290 H         1 UNK         0.0634 
@<TRIPOS>BOND
     1    1    2 1    
     2    1   72 1    
     3    1   73 1    
     4    1   74 1    
     5    2    3 2    
     6    2    4 am   BACKBONE|DICT|INTERRES
     7    4    5 1    
     8    4   75 1    
     9    5    6 1    
    10    5   35 1    
    11    5   76 1    
    12    6    7 1    
    13    6   77 1    
    14    6   78 1    
    15    7    8 1    
    16    8    9 1    
    17    8   79 1    
    18    8   80 1    
    19    9   10 ar   
    20    9   14 ar   
    21   10   11 ar   
    22   10   81 1    
    23   11   12 ar   
    24   11   71 1    
    25   12   13 ar   
    26   12   82 1    
    27   13   14 ar   
    28   13   15 1    
    29   14   83 1    
    30   15   16 1    
    31   15   84 1    
    32   15   85 1    
    33   16   17 1    
    34   17   18 1    
    35   17   86 1    
    36   17   87 1    
    37   18   19 1    
    38   18   37 1    
    39   18   88 1    
    40   19   20 am   BACKBONE|DICT|INTERRES
    41   19   89 1    
    42   20   21 2    
    43   20   22 1    
    44   22   23 1    
    45   22   24 1    
    46   22   90 1    
    47   23   91 1    
    48   23   92 1    
    49   23   93 1    
    50   24   25 am   BACKBONE|DICT|INTERRES
    51   24   94 1    
    52   25   26 2    
    53   25   27 1    
    54   27   28 1    
    55   27   29 1    
    56   27   95 1    
    57   28   96 1    
    58   28   97 1    
    59   28   98 1    
    60   29   30 am   BACKBONE|DICT|INTERRES
    61   29   99 1    
    62   30   31 2    
    63   30   32 1    
    64   32   33 1    
    65   32   34 1    
    66   32  100 1    
    67   33  101 1    
    68   33  102 1    
    69   33  103 1    
    70   34   35 am   BACKBONE|DICT|INTERRES
    71   34  104 1    
    72   35   36 2    
    73   37   38 2    
    74   37   39 am   BACKBONE|DICT|INTERRES
    75   39   40 1    
    76   39  105 1    
    77   40   41 1    
    78   40   42 1    
    79   40  106 1    
    80   41  107 1    
    81   41  108 1    
    82   41  109 1    
    83   42   43 2    
    84   42   44 am   BACKBONE|DICT|INTERRES
    85   44   45 1    
    86   44  110 1    
    87   45   46 1    
    88   45   47 1    
    89   45  111 1    
    90   46  112 1    
    91   46  113 1    
    92   46  114 1    
    93   47   48 2    
    94   47   49 am   BACKBONE|DICT|INTERRES
    95   49   50 1    
    96   49  115 1    
    97   50   51 1    
    98   50   52 1    
    99   50  116 1    
   100   51  117 1    
   101   51  118 1    
   102   51  119 1    
   103   52   53 2    
   104   52   54 am   BACKBONE|DICT|INTERRES
   105   54   55 1    
   106   54  120 1    
   107   55   56 1    
   108   55   57 1    
   109   55  121 1    
   110   56  122 1    
   111   56  123 1    
   112   56  124 1    
   113   57   58 2    
   114   57   59 am   BACKBONE|DICT|INTERRES
   115   59   60 1    
   116   59  125 1    
   117   60   61 1    
   118   60   62 1    
   119   60  126 1    
   120   61  127 1    
   121   61  128 1    
   122   61  129 1    
   123   62   63 2    
   124   62   64 am   BACKBONE|DICT|INTERRES
   125   64   65 1    
   126   64  130 1    
   127   65   66 1    
   128   65   69 1    
   129   65  131 1    
   130   66   67 am   BACKBONE|DICT|INTERRES
   131   66   68 2    
   132   67  132 1    
   133   67  133 1    
   134   69   70 1    
   135   69  134 1    
   136   69  135 1    
   137   70   71 1    
   138   71  136 1    
   139   71  137 1    
@<TRIPOS>SUBSTRUCTURE
     1 UNK         1 GROUP             0       ****    0 ROOT    
