@<TRIPOS>MOLECULE
3R136
137   139    1
SMALL
USER_CHARGES


@<TRIPOS>ATOM
      1 CA         34.9785   21.7998    0.2315 C.3       0 UNK        -0.1979 
      2 C          33.5506   22.3199    0.1478 C.2       0 UNK         0.4864 
      3 O          32.9438   22.2594   -0.9229 O.2       0 UNK        -0.5359 
      4 N          33.0212   22.8227    1.2732 N.am      1 UNK        -0.4318 
      5 CA         31.6710   23.3880    1.4357 C.3       1 UNK         0.0824 
      6 C6         30.5382   22.3302    1.2727 C.3       12 UNK        -0.0944 
      7 S7         30.8262   20.8423    2.2956 S.3       12 UNK        -0.2672 
      8 C8         29.6134   21.0361    3.6401 C.3       12 UNK         0.0333 
      9 C9         29.8119   22.3122    4.4494 C.ar      12 UNK        -0.0807 
     10 C10        31.0237   22.5683    5.1001 C.ar      12 UNK        -0.0894 
     11 C11        31.1880   23.7256    5.8684 C.ar      12 UNK        -0.0804 
     12 C12        30.1258   24.6303    5.9836 C.ar      12 UNK        -0.0824 
     13 C13        28.9026   24.3782    5.3512 C.ar      12 UNK        -0.0762 
     14 C14        28.7566   23.2178    4.5849 C.ar      12 UNK        -0.0782 
     15 C15        27.7208   25.3258    5.5437 C.3       12 UNK         0.0230 
     16 S16        26.9455   25.8276    3.9703 S.3       12 UNK        -0.2608 
     17 C17        28.2662   26.8611    3.2567 C.3       12 UNK        -0.0989 
     18 CA         27.8090   28.2891    2.8692 C.3       5 UNK         0.0716 
     19 N          26.7820   28.2629    1.8181 N.am      5 UNK        -0.4135 
     20 C          26.3621   29.3200    1.1113 C.2       4 UNK         0.5031 
     21 O          26.7286   30.4750    1.3348 O.2       4 UNK        -0.5229 
     22 CA         25.4087   29.0229   -0.0510 C.3       4 UNK         0.0329 
     23 CB         24.9096   30.2974   -0.7596 C.3       4 UNK        -0.2001 
     24 N          26.1027   28.1640   -1.0079 N.am      4 UNK        -0.4303 
     25 C          25.5490   27.1593   -1.6981 C.2       3 UNK         0.5044 
     26 O          24.3593   26.8496   -1.6238 O.2       3 UNK        -0.5152 
     27 CA         26.4765   26.3605   -2.6355 C.3       3 UNK         0.0319 
     28 CB         26.3579   26.8834   -4.0765 C.3       3 UNK        -0.2001 
     29 N          27.8875   26.3815   -2.2298 N.am      3 UNK        -0.4354 
     30 C          28.3738   25.7463   -1.1553 C.2       2 UNK         0.4964 
     31 O          27.6894   25.0532   -0.3972 O.2       2 UNK        -0.5047 
     32 CA         29.8652   25.9484   -0.8571 C.3       2 UNK         0.0288 
     33 CB         30.1133   27.3804   -0.3420 C.3       2 UNK        -0.2113 
     34 N          30.2611   24.9300    0.1161 N.am      2 UNK        -0.4145 
     35 C          31.4929   24.6564    0.5641 C.2       1 UNK         0.5006 
     36 O          32.4773   25.3684    0.3416 O.2       1 UNK        -0.5103 
     37 C          27.4878   29.1603    4.1054 C.2       5 UNK         0.5055 
     38 O          28.3952   29.4451    4.8875 O.2       5 UNK        -0.5220 
     39 N          26.2278   29.5907    4.2543 N.am      6 UNK        -0.4450 
     40 CA         25.8045   30.5845    5.2414 C.3       6 UNK         0.0367 
     41 CB         24.2728   30.5449    5.3667 C.3       6 UNK        -0.1929 
     42 C          26.2782   32.0136    4.9056 C.2       6 UNK         0.5070 
     43 O          26.3704   32.8347    5.8188 O.2       6 UNK        -0.5237 
     44 N          26.5486   32.2943    3.6221 N.am      7 UNK        -0.4739 
     45 CA         26.9702   33.6053    3.1212 C.3       7 UNK         0.0276 
     46 CB         25.9257   34.1146    2.1135 C.3       7 UNK        -0.1927 
     47 C          28.3602   33.5593    2.4681 C.2       7 UNK         0.5013 
     48 O          29.1313   34.5055    2.6358 O.2       7 UNK        -0.5193 
     49 N          28.6520   32.4868    1.7203 N.am      8 UNK        -0.4253 
     50 CA         29.9129   32.2810    1.0054 C.3       8 UNK         0.0242 
     51 CB         29.7209   31.1367   -0.0047 C.3       8 UNK        -0.2000 
     52 C          31.0813   31.9570    1.9506 C.2       8 UNK         0.4948 
     53 O          30.8685   31.4116    3.0368 O.2       8 UNK        -0.5275 
     54 N          32.3098   32.2232    1.4844 N.am      9 UNK        -0.4246 
     55 CA         33.5699   31.8500    2.1399 C.3       9 UNK         0.0261 
     56 CB         34.7029   32.7387    1.5930 C.3       9 UNK        -0.1959 
     57 C          33.8592   30.3445    1.9650 C.2       9 UNK         0.5033 
     58 O          34.8136   29.9622    1.2845 O.2       9 UNK        -0.5390 
     59 N          32.9746   29.5246    2.5371 N.am      10 UNK        -0.4215 
     60 CA         32.9346   28.0716    2.4133 C.3       10 UNK         0.0240 
     61 CB         31.5823   27.5975    2.9582 C.3       10 UNK        -0.1982 
     62 C          34.0564   27.3531    3.1691 C.2       10 UNK         0.4970 
     63 O          34.5889   27.8968    4.1393 O.2       10 UNK        -0.4916 
     64 N          34.3092   26.1088    2.7374 N.am      11 UNK        -0.4279 
     65 CA         35.1019   25.0619    3.4117 C.3       11 UNK         0.1003 
     66 C          36.5429   25.4377    3.8798 C.2       11 UNK         0.5709 
     67 N          37.1736   26.4554    3.3071 N.am      11 UNK        -0.7358 
     68 O          37.1222   24.7698    4.7335 O.2       11 UNK        -0.4999 
     69 C69        34.2672   24.2471    4.4511 C.3       12 UNK        -0.0954 
     70 S70        33.5613   25.2017    5.8367 S.3       12 UNK        -0.2268 
     71 C71        32.4870   23.9647    6.6301 C.3       12 UNK         0.0203 
     72 H72        35.6227   22.3646   -0.4418 H         1 UNK         0.0888 
     73 H73        35.3863   21.8810    1.2390 H         1 UNK         0.0888 
     74 H74        35.0128   20.7512   -0.0631 H         1 UNK         0.0888 
     75 H75        33.5791   22.8104    2.1123 H         1 UNK         0.3017 
     76 H76        31.6188   23.7513    2.4623 H         1 UNK         0.0873 
     77 H77        29.5671   22.7509    1.5388 H         1 UNK         0.0745 
     78 H78        30.4593   22.0091    0.2325 H         1 UNK         0.0745 
     79 H79        29.6951   20.1796    4.3104 H         1 UNK         0.0705 
     80 H80        28.6103   20.9947    3.2126 H         1 UNK         0.0705 
     81 H81        31.8344   21.8571    5.0166 H         1 UNK         0.1334 
     82 H82        30.2468   25.5171    6.5908 H         1 UNK         0.1417 
     83 H83        27.8084   23.0145    4.1055 H         1 UNK         0.1562 
     84 H84        28.0196   26.2200    6.0935 H         1 UNK         0.0748 
     85 H85        26.9709   24.8251    6.1575 H         1 UNK         0.0748 
     86 H86        28.6542   26.3402    2.3805 H         1 UNK         0.0940 
     87 H87        29.1016   26.9131    3.9560 H         1 UNK         0.0940 
     88 H88        28.6646   28.7898    2.4159 H         1 UNK         0.0703 
     89 H89        26.4180   27.3490    1.5855 H         1 UNK         0.3081 
     90 H90        24.5472   28.4995    0.3694 H         1 UNK         0.0719 
     91 H91        24.3977   30.9592   -0.0597 H         1 UNK         0.0809 
     92 H92        24.2034   30.0573   -1.5545 H         1 UNK         0.0809 
     93 H93        25.7320   30.8617   -1.2013 H         1 UNK         0.0809 
     94 H94        27.0904   28.3386   -1.1258 H         1 UNK         0.2990 
     95 H95        26.1360   25.3227   -2.6222 H         1 UNK         0.0690 
     96 H96        26.9433   26.2776   -4.7685 H         1 UNK         0.0788 
     97 H97        26.6978   27.9164   -4.1619 H         1 UNK         0.0788 
     98 H98        25.3224   26.8523   -4.4188 H         1 UNK         0.0788 
     99 H99        28.5162   26.9238   -2.8057 H         1 UNK         0.2993 
    100 H100       30.4330   25.7818   -1.7748 H         1 UNK         0.0949 
    101 H101       29.8396   28.1207   -1.0942 H         1 UNK         0.0767 
    102 H102       29.5229   27.5911    0.5463 H         1 UNK         0.0767 
    103 H103       31.1611   27.5559   -0.1060 H         1 UNK         0.0767 
    104 H104       29.4900   24.3232    0.3702 H         1 UNK         0.3013 
    105 H105       25.5383   29.2909    3.5813 H         1 UNK         0.3121 
    106 H106       26.2339   30.3139    6.2086 H         1 UNK         0.0774 
    107 H107       23.9257   31.2532    6.1205 H         1 UNK         0.0815 
    108 H108       23.7830   30.8042    4.4272 H         1 UNK         0.0815 
    109 H109       23.9238   29.5572    5.6684 H         1 UNK         0.0815 
    110 H110       26.4765   31.5522    2.9327 H         1 UNK         0.2987 
    111 H111       27.0276   34.3267    3.9393 H         1 UNK         0.0949 
    112 H112       24.9492   34.2326    2.5833 H         1 UNK         0.0806 
    113 H113       26.2114   35.0876    1.7113 H         1 UNK         0.0806 
    114 H114       25.8109   33.4319    1.2702 H         1 UNK         0.0806 
    115 H115       27.9555   31.7518    1.6217 H         1 UNK         0.3010 
    116 H116       30.1485   33.1977    0.4603 H         1 UNK         0.0829 
    117 H117       28.9081   31.3514   -0.6989 H         1 UNK         0.0813 
    118 H118       30.6210   30.9760   -0.5994 H         1 UNK         0.0813 
    119 H119       29.4905   30.1972    0.4977 H         1 UNK         0.0813 
    120 H120       32.3956   32.6339    0.5654 H         1 UNK         0.3038 
    121 H121       33.4816   32.0450    3.2111 H         1 UNK         0.0769 
    122 H122       34.8397   32.6071    0.5189 H         1 UNK         0.0811 
    123 H123       35.6522   32.4990    2.0740 H         1 UNK         0.0811 
    124 H124       34.5046   33.7942    1.7797 H         1 UNK         0.0811 
    125 H125       32.2092   29.9614    3.0430 H         1 UNK         0.3204 
    126 H126       33.0102   27.8230    1.3533 H         1 UNK         0.0748 
    127 H127       31.4556   26.5208    2.8466 H         1 UNK         0.0771 
    128 H128       31.4725   27.8287    4.0191 H         1 UNK         0.0771 
    129 H129       30.7705   28.0835    2.4260 H         1 UNK         0.0771 
    130 H130       33.8261   25.8067    1.8983 H         1 UNK         0.2980 
    131 H131       35.3106   24.3569    2.6068 H         1 UNK         0.0545 
    132 H132       36.7041   27.0239    2.6205 H         1 UNK         0.3459 
    133 H133       38.1096   26.6849    3.6010 H         1 UNK         0.3459 
    134 H134       33.4352   23.7685    3.9388 H         1 UNK         0.0616 
    135 H135       34.8579   23.4274    4.8636 H         1 UNK         0.0616 
    136 H136       32.2500   24.3099    7.6375 H         1 UNK         0.0634 
    137 H137       33.0409   23.0329    6.7546 H         1 UNK         0.0634 
@<TRIPOS>BOND
     1    1    2 1    
     2    1   72 1    
     3    1   73 1    
     4    1   74 1    
     5    2    3 2    
     6    2    4 am   BACKBONE|DICT|INTERRES
     7    4    5 1    
     8    4   75 1    
     9    5    6 1    
    10    5   35 1    
    11    5   76 1    
    12    6    7 1    
    13    6   77 1    
    14    6   78 1    
    15    7    8 1    
    16    8    9 1    
    17    8   79 1    
    18    8   80 1    
    19    9   10 ar   
    20    9   14 ar   
    21   10   11 ar   
    22   10   81 1    
    23   11   12 ar   
    24   11   71 1    
    25   12   13 ar   
    26   12   82 1    
    27   13   14 ar   
    28   13   15 1    
    29   14   83 1    
    30   15   16 1    
    31   15   84 1    
    32   15   85 1    
    33   16   17 1    
    34   17   18 1    
    35   17   86 1    
    36   17   87 1    
    37   18   19 1    
    38   18   37 1    
    39   18   88 1    
    40   19   20 am   BACKBONE|DICT|INTERRES
    41   19   89 1    
    42   20   21 2    
    43   20   22 1    
    44   22   23 1    
    45   22   24 1    
    46   22   90 1    
    47   23   91 1    
    48   23   92 1    
    49   23   93 1    
    50   24   25 am   BACKBONE|DICT|INTERRES
    51   24   94 1    
    52   25   26 2    
    53   25   27 1    
    54   27   28 1    
    55   27   29 1    
    56   27   95 1    
    57   28   96 1    
    58   28   97 1    
    59   28   98 1    
    60   29   30 am   BACKBONE|DICT|INTERRES
    61   29   99 1    
    62   30   31 2    
    63   30   32 1    
    64   32   33 1    
    65   32   34 1    
    66   32  100 1    
    67   33  101 1    
    68   33  102 1    
    69   33  103 1    
    70   34   35 am   BACKBONE|DICT|INTERRES
    71   34  104 1    
    72   35   36 2    
    73   37   38 2    
    74   37   39 am   BACKBONE|DICT|INTERRES
    75   39   40 1    
    76   39  105 1    
    77   40   41 1    
    78   40   42 1    
    79   40  106 1    
    80   41  107 1    
    81   41  108 1    
    82   41  109 1    
    83   42   43 2    
    84   42   44 am   BACKBONE|DICT|INTERRES
    85   44   45 1    
    86   44  110 1    
    87   45   46 1    
    88   45   47 1    
    89   45  111 1    
    90   46  112 1    
    91   46  113 1    
    92   46  114 1    
    93   47   48 2    
    94   47   49 am   BACKBONE|DICT|INTERRES
    95   49   50 1    
    96   49  115 1    
    97   50   51 1    
    98   50   52 1    
    99   50  116 1    
   100   51  117 1    
   101   51  118 1    
   102   51  119 1    
   103   52   53 2    
   104   52   54 am   BACKBONE|DICT|INTERRES
   105   54   55 1    
   106   54  120 1    
   107   55   56 1    
   108   55   57 1    
   109   55  121 1    
   110   56  122 1    
   111   56  123 1    
   112   56  124 1    
   113   57   58 2    
   114   57   59 am   BACKBONE|DICT|INTERRES
   115   59   60 1    
   116   59  125 1    
   117   60   61 1    
   118   60   62 1    
   119   60  126 1    
   120   61  127 1    
   121   61  128 1    
   122   61  129 1    
   123   62   63 2    
   124   62   64 am   BACKBONE|DICT|INTERRES
   125   64   65 1    
   126   64  130 1    
   127   65   66 1    
   128   65   69 1    
   129   65  131 1    
   130   66   67 am   BACKBONE|DICT|INTERRES
   131   66   68 2    
   132   67  132 1    
   133   67  133 1    
   134   69   70 1    
   135   69  134 1    
   136   69  135 1    
   137   70   71 1    
   138   71  136 1    
   139   71  137 1    
@<TRIPOS>SUBSTRUCTURE
     1 UNK         1 GROUP             0       ****    0 ROOT    
