@<TRIPOS>MOLECULE
3R136
137   139    1
SMALL
USER_CHARGES


@<TRIPOS>ATOM
      1 CA         30.5535   26.7026    2.8781 C.3       0 UNK        -0.1979 
      2 C          29.3062   25.8336    2.8317 C.2       0 UNK         0.4864 
      3 O          28.2351   26.2787    3.2498 O.2       0 UNK        -0.5359 
      4 N          29.4444   24.5947    2.3357 N.am      1 UNK        -0.4318 
      5 CA         28.3904   23.5757    2.2584 C.3       1 UNK         0.0824 
      6 C6         28.8993   22.2623    1.6203 C.3       12 UNK        -0.0944 
      7 S7         30.1027   21.4116    2.6910 S.3       12 UNK        -0.2672 
      8 C8         31.5153   21.1783    1.5680 C.3       12 UNK         0.0333 
      9 C9         32.3606   22.4361    1.4217 C.ar      12 UNK        -0.0807 
     10 C10        33.0666   22.9312    2.5221 C.ar      12 UNK        -0.0894 
     11 C11        33.9104   24.0368    2.3885 C.ar      12 UNK        -0.0804 
     12 C12        34.0517   24.6447    1.1384 C.ar      12 UNK        -0.0824 
     13 C13        33.3410   24.1690    0.0319 C.ar      12 UNK        -0.0762 
     14 C14        32.4905   23.0677    0.1804 C.ar      12 UNK        -0.0782 
     15 C15        33.5265   24.8241   -1.3307 C.3       12 UNK         0.0230 
     16 S16        32.9573   26.5530   -1.3432 S.3       12 UNK        -0.2608 
     17 C17        31.1661   26.3478   -1.0724 C.3       12 UNK        -0.0989 
     18 CA         30.3101   27.3353   -1.9087 C.3       5 UNK         0.0716 
     19 N          28.8969   26.9777   -1.8102 N.am      5 UNK        -0.4135 
     20 C          27.9892   27.0886   -2.7875 C.2       4 UNK         0.5031 
     21 O          28.2606   27.3749   -3.9546 O.2       4 UNK        -0.5229 
     22 CA         26.5238   26.8309   -2.4022 C.3       4 UNK         0.0329 
     23 CB         26.0968   25.4175   -2.8318 C.3       4 UNK        -0.2001 
     24 N          26.2866   26.9774   -0.9639 N.am      4 UNK        -0.4303 
     25 C          25.9163   28.1129   -0.3505 C.2       3 UNK         0.5044 
     26 O          25.7857   29.1871   -0.9392 O.2       3 UNK        -0.5152 
     27 CA         25.6328   28.0428    1.1701 C.3       3 UNK         0.0319 
     28 CB         24.4823   28.9766    1.6032 C.3       3 UNK        -0.2001 
     29 N          25.4279   26.6775    1.6701 N.am      3 UNK        -0.4354 
     30 C          24.4638   25.8161    1.3036 C.2       2 UNK         0.4964 
     31 O          23.4920   26.1332    0.6164 O.2       2 UNK        -0.5047 
     32 CA         24.6297   24.3407    1.7291 C.3       2 UNK         0.0288 
     33 CB         24.1743   23.3727    0.6154 C.3       2 UNK        -0.2113 
     34 N          25.9791   23.9727    2.1866 N.am      2 UNK        -0.4145 
     35 C          27.1376   24.0764    1.5143 C.2       1 UNK         0.5006 
     36 O          27.2484   24.5541    0.3812 O.2       1 UNK        -0.5103 
     37 C          30.4184   28.8214   -1.5004 C.2       5 UNK         0.5055 
     38 O          29.9016   29.6849   -2.2134 O.2       5 UNK        -0.5220 
     39 N          31.0262   29.1018   -0.3399 N.am      6 UNK        -0.4450 
     40 CA         30.8402   30.3553    0.3930 C.3       6 UNK         0.0367 
     41 CB         31.8932   30.4481    1.5095 C.3       6 UNK        -0.1929 
     42 C          29.4186   30.4033    0.9819 C.2       6 UNK         0.5070 
     43 O          28.8223   29.3489    1.2130 O.2       6 UNK        -0.5237 
     44 N          28.9035   31.6088    1.2482 N.am      7 UNK        -0.4739 
     45 CA         27.5441   31.8514    1.7505 C.3       7 UNK         0.0276 
     46 CB         27.1568   33.3102    1.4434 C.3       7 UNK        -0.1927 
     47 C          27.3764   31.4955    3.2443 C.2       7 UNK         0.5013 
     48 O          27.0451   32.3661    4.0507 O.2       7 UNK        -0.5193 
     49 N          27.6397   30.2245    3.5814 N.am      8 UNK        -0.4253 
     50 CA         27.6207   29.6163    4.9198 C.3       8 UNK         0.0242 
     51 CB         26.1873   29.5864    5.4913 C.3       8 UNK        -0.2000 
     52 C          28.6439   30.2370    5.8953 C.2       8 UNK         0.4948 
     53 O          28.4316   30.2142    7.1096 O.2       8 UNK        -0.5275 
     54 N          29.7375   30.7784    5.3445 N.am      9 UNK        -0.4246 
     55 CA         30.8620   31.3539    6.0800 C.3       9 UNK         0.0261 
     56 CB         31.5613   32.3792    5.1690 C.3       9 UNK        -0.1959 
     57 C          31.8489   30.2638    6.5312 C.2       9 UNK         0.5033 
     58 O          31.7251   29.1030    6.1284 O.2       9 UNK        -0.5390 
     59 N          32.8449   30.6692    7.3301 N.am      10 UNK        -0.4215 
     60 CA         33.9758   29.8436    7.7623 C.3       10 UNK         0.0240 
     61 CB         34.6581   30.5184    8.9671 C.3       10 UNK        -0.1982 
     62 C          34.9541   29.5885    6.5980 C.2       10 UNK         0.4970 
     63 O          36.0117   30.2174    6.5255 O.2       10 UNK        -0.4916 
     64 N          34.5438   28.7018    5.6870 N.am      11 UNK        -0.4279 
     65 CA         35.2742   28.2627    4.4926 C.3       11 UNK         0.1003 
     66 C          36.6543   27.6053    4.7867 C.2       11 UNK         0.5709 
     67 N          37.5614   27.6208    3.8189 N.am      11 UNK        -0.7358 
     68 O          36.9008   27.0565    5.8597 O.2       11 UNK        -0.4999 
     69 C69        34.3709   27.3651    3.6036 C.3       12 UNK        -0.0954 
     70 S70        33.7666   25.8633    4.4561 S.3       12 UNK        -0.2268 
     71 C71        34.6831   24.5512    3.5934 C.3       12 UNK         0.0203 
     72 H72        30.7638   27.0034    3.9046 H         1 UNK         0.0888 
     73 H73        30.4049   27.6022    2.2864 H         1 UNK         0.0888 
     74 H74        31.4290   26.1801    2.4924 H         1 UNK         0.0888 
     75 H75        30.3543   24.2863    2.0238 H         1 UNK         0.3017 
     76 H76        28.1006   23.3596    3.2890 H         1 UNK         0.0873 
     77 H77        29.3328   22.4568    0.6373 H         1 UNK         0.0745 
     78 H78        28.0752   21.5649    1.4553 H         1 UNK         0.0745 
     79 H79        32.1451   20.3820    1.9673 H         1 UNK         0.0705 
     80 H80        31.1592   20.8229    0.5997 H         1 UNK         0.0705 
     81 H81        32.9676   22.4439    3.4829 H         1 UNK         0.1334 
     82 H82        34.7162   25.4891    1.0200 H         1 UNK         0.1417 
     83 H83        31.9542   22.6832   -0.6767 H         1 UNK         0.1562 
     84 H84        33.0070   24.2669   -2.1120 H         1 UNK         0.0748 
     85 H85        34.5852   24.8013   -1.5931 H         1 UNK         0.0748 
     86 H86        30.9464   26.4145   -0.0067 H         1 UNK         0.0940 
     87 H87        30.8969   25.3286   -1.3555 H         1 UNK         0.0940 
     88 H88        30.6302   27.2616   -2.9504 H         1 UNK         0.0703 
     89 H89        28.5548   26.7603   -0.8856 H         1 UNK         0.3081 
     90 H90        25.9077   27.5510   -2.9451 H         1 UNK         0.0719 
     91 H91        26.6887   24.6474   -2.3353 H         1 UNK         0.0809 
     92 H92        25.0474   25.2337   -2.6002 H         1 UNK         0.0809 
     93 H93        26.2204   25.2819   -3.9071 H         1 UNK         0.0809 
     94 H94        26.4077   26.1378   -0.4037 H         1 UNK         0.2990 
     95 H95        26.5368   28.3915    1.6644 H         1 UNK         0.0690 
     96 H96        24.2962   28.9079    2.6744 H         1 UNK         0.0788 
     97 H97        23.5522   28.7412    1.0856 H         1 UNK         0.0788 
     98 H98        24.7171   30.0180    1.3829 H         1 UNK         0.0788 
     99 H99        26.1868   26.3198    2.2401 H         1 UNK         0.2993 
    100 H100       23.9663   24.2017    2.5841 H         1 UNK         0.0949 
    101 H101       23.1261   23.5305    0.3581 H         1 UNK         0.0767 
    102 H102       24.7565   23.5054   -0.2974 H         1 UNK         0.0767 
    103 H103       24.2736   22.3331    0.9279 H         1 UNK         0.0767 
    104 H104       26.0175   23.6005    3.1260 H         1 UNK         0.3013 
    105 H105       31.4537   28.3421    0.1671 H         1 UNK         0.3121 
    106 H106       30.9722   31.1923   -0.2960 H         1 UNK         0.0774 
    107 H107       32.9034   30.3445    1.1128 H         1 UNK         0.0815 
    108 H108       31.7525   29.6819    2.2728 H         1 UNK         0.0815 
    109 H109       31.8429   31.4176    2.0051 H         1 UNK         0.0815 
    110 H110       29.4661   32.4285    1.0678 H         1 UNK         0.2987 
    111 H111       26.8578   31.2088    1.1943 H         1 UNK         0.0949 
    112 H112       27.8095   34.0185    1.9553 H         1 UNK         0.0806 
    113 H113       27.2070   33.5179    0.3743 H         1 UNK         0.0806 
    114 H114       26.1346   33.5189    1.7623 H         1 UNK         0.0806 
    115 H115       27.9660   29.6225    2.8267 H         1 UNK         0.3010 
    116 H116       27.9378   28.5815    4.7812 H         1 UNK         0.0829 
    117 H117       25.4961   29.1059    4.7997 H         1 UNK         0.0813 
    118 H118       26.1491   29.0237    6.4247 H         1 UNK         0.0813 
    119 H119       25.8135   30.5889    5.7007 H         1 UNK         0.0813 
    120 H120       29.8405   30.7125    4.3440 H         1 UNK         0.3038 
    121 H121       30.4830   31.8676    6.9662 H         1 UNK         0.0769 
    122 H122       32.0531   31.8980    4.3235 H         1 UNK         0.0811 
    123 H123       32.3252   32.9369    5.7117 H         1 UNK         0.0811 
    124 H124       30.8540   33.1099    4.7756 H         1 UNK         0.0811 
    125 H125       32.8825   31.6439    7.5922 H         1 UNK         0.3204 
    126 H126       33.5950   28.8755    8.0956 H         1 UNK         0.0748 
    127 H127       33.9699   30.6202    9.8065 H         1 UNK         0.0771 
    128 H128       35.5060   29.9269    9.3154 H         1 UNK         0.0771 
    129 H129       35.0338   31.5120    8.7191 H         1 UNK         0.0771 
    130 H130       33.6222   28.2978    5.8091 H         1 UNK         0.2980 
    131 H131       35.4833   29.1723    3.9265 H         1 UNK         0.0545 
    132 H132       37.3736   28.0609    2.9319 H         1 UNK         0.3459 
    133 H133       38.4581   27.1910    3.9837 H         1 UNK         0.3459 
    134 H134       33.4957   27.9340    3.2863 H         1 UNK         0.0616 
    135 H135       34.8884   27.0969    2.6824 H         1 UNK         0.0616 
    136 H136       34.8598   23.7351    4.2955 H         1 UNK         0.0634 
    137 H137       35.6697   24.9092    3.2954 H         1 UNK         0.0634 
@<TRIPOS>BOND
     1    1    2 1    
     2    1   72 1    
     3    1   73 1    
     4    1   74 1    
     5    2    3 2    
     6    2    4 am   BACKBONE|DICT|INTERRES
     7    4    5 1    
     8    4   75 1    
     9    5    6 1    
    10    5   35 1    
    11    5   76 1    
    12    6    7 1    
    13    6   77 1    
    14    6   78 1    
    15    7    8 1    
    16    8    9 1    
    17    8   79 1    
    18    8   80 1    
    19    9   10 ar   
    20    9   14 ar   
    21   10   11 ar   
    22   10   81 1    
    23   11   12 ar   
    24   11   71 1    
    25   12   13 ar   
    26   12   82 1    
    27   13   14 ar   
    28   13   15 1    
    29   14   83 1    
    30   15   16 1    
    31   15   84 1    
    32   15   85 1    
    33   16   17 1    
    34   17   18 1    
    35   17   86 1    
    36   17   87 1    
    37   18   19 1    
    38   18   37 1    
    39   18   88 1    
    40   19   20 am   BACKBONE|DICT|INTERRES
    41   19   89 1    
    42   20   21 2    
    43   20   22 1    
    44   22   23 1    
    45   22   24 1    
    46   22   90 1    
    47   23   91 1    
    48   23   92 1    
    49   23   93 1    
    50   24   25 am   BACKBONE|DICT|INTERRES
    51   24   94 1    
    52   25   26 2    
    53   25   27 1    
    54   27   28 1    
    55   27   29 1    
    56   27   95 1    
    57   28   96 1    
    58   28   97 1    
    59   28   98 1    
    60   29   30 am   BACKBONE|DICT|INTERRES
    61   29   99 1    
    62   30   31 2    
    63   30   32 1    
    64   32   33 1    
    65   32   34 1    
    66   32  100 1    
    67   33  101 1    
    68   33  102 1    
    69   33  103 1    
    70   34   35 am   BACKBONE|DICT|INTERRES
    71   34  104 1    
    72   35   36 2    
    73   37   38 2    
    74   37   39 am   BACKBONE|DICT|INTERRES
    75   39   40 1    
    76   39  105 1    
    77   40   41 1    
    78   40   42 1    
    79   40  106 1    
    80   41  107 1    
    81   41  108 1    
    82   41  109 1    
    83   42   43 2    
    84   42   44 am   BACKBONE|DICT|INTERRES
    85   44   45 1    
    86   44  110 1    
    87   45   46 1    
    88   45   47 1    
    89   45  111 1    
    90   46  112 1    
    91   46  113 1    
    92   46  114 1    
    93   47   48 2    
    94   47   49 am   BACKBONE|DICT|INTERRES
    95   49   50 1    
    96   49  115 1    
    97   50   51 1    
    98   50   52 1    
    99   50  116 1    
   100   51  117 1    
   101   51  118 1    
   102   51  119 1    
   103   52   53 2    
   104   52   54 am   BACKBONE|DICT|INTERRES
   105   54   55 1    
   106   54  120 1    
   107   55   56 1    
   108   55   57 1    
   109   55  121 1    
   110   56  122 1    
   111   56  123 1    
   112   56  124 1    
   113   57   58 2    
   114   57   59 am   BACKBONE|DICT|INTERRES
   115   59   60 1    
   116   59  125 1    
   117   60   61 1    
   118   60   62 1    
   119   60  126 1    
   120   61  127 1    
   121   61  128 1    
   122   61  129 1    
   123   62   63 2    
   124   62   64 am   BACKBONE|DICT|INTERRES
   125   64   65 1    
   126   64  130 1    
   127   65   66 1    
   128   65   69 1    
   129   65  131 1    
   130   66   67 am   BACKBONE|DICT|INTERRES
   131   66   68 2    
   132   67  132 1    
   133   67  133 1    
   134   69   70 1    
   135   69  134 1    
   136   69  135 1    
   137   70   71 1    
   138   71  136 1    
   139   71  137 1    
@<TRIPOS>SUBSTRUCTURE
     1 UNK         1 GROUP             0       ****    0 ROOT    
