@<TRIPOS>MOLECULE
3R136
137   139    1
SMALL
USER_CHARGES


@<TRIPOS>ATOM
      1 CA         25.4126   20.3465    0.8545 C.3       0 UNK        -0.1979 
      2 C          26.8036   20.9623    0.8615 C.2       0 UNK         0.4864 
      3 O          27.5862   20.6919    1.7738 O.2       0 UNK        -0.5359 
      4 N          27.1110   21.8011   -0.1390 N.am      1 UNK        -0.4318 
      5 CA         28.3806   22.5112   -0.3630 C.3       1 UNK         0.0824 
      6 C6         29.6029   21.5623   -0.4912 C.3       12 UNK        -0.0944 
      7 S7         30.8657   22.2134   -1.6318 S.3       12 UNK        -0.2672 
      8 C8         32.4022   21.8974   -0.7083 C.3       12 UNK         0.0333 
      9 C9         32.6589   22.9358    0.3755 C.ar      12 UNK        -0.0807 
     10 C10        32.6463   22.5742    1.7271 C.ar      12 UNK        -0.0894 
     11 C11        32.9606   23.5131    2.7157 C.ar      12 UNK        -0.0804 
     12 C12        33.2829   24.8206    2.3397 C.ar      12 UNK        -0.0824 
     13 C13        33.2603   25.2062    0.9967 C.ar      12 UNK        -0.0762 
     14 C14        32.9590   24.2542    0.0187 C.ar      12 UNK        -0.0782 
     15 C15        33.5461   26.6508    0.5949 C.3       12 UNK         0.0230 
     16 S16        32.6273   27.8716    1.5959 S.3       12 UNK        -0.2608 
     17 C17        30.9076   27.2767    1.4392 C.3       12 UNK        -0.0989 
     18 CA         29.9639   28.3136    0.7902 C.3       5 UNK         0.0716 
     19 N          28.7566   27.6775    0.2563 N.am      5 UNK        -0.4135 
     20 C          27.7786   28.2980   -0.4202 C.2       4 UNK         0.5031 
     21 O          27.7967   29.4914   -0.7206 O.2       4 UNK        -0.5229 
     22 CA         26.5523   27.4480   -0.7853 C.3       4 UNK         0.0329 
     23 CB         26.8190   26.5997   -2.0397 C.3       4 UNK        -0.2001 
     24 N          26.1545   26.5852    0.3288 N.am      4 UNK        -0.4303 
     25 C          25.5150   27.0206    1.4244 C.2       3 UNK         0.5044 
     26 O          25.1061   28.1727    1.5674 O.2       3 UNK        -0.5152 
     27 CA         25.3134   26.0056    2.5641 C.3       3 UNK         0.0319 
     28 CB         24.0003   25.2307    2.3706 C.3       3 UNK        -0.2001 
     29 N          26.4213   25.0559    2.7026 N.am      3 UNK        -0.4354 
     30 C          27.6719   25.3862    3.0579 C.2       2 UNK         0.4964 
     31 O          28.0306   26.5335    3.3168 O.2       2 UNK        -0.5047 
     32 CA         28.7068   24.2494    3.0754 C.3       2 UNK         0.0288 
     33 CB         28.6111   23.4597    4.3899 C.3       2 UNK        -0.2113 
     34 N          28.5676   23.3242    1.9489 N.am      2 UNK        -0.4145 
     35 C          28.6193   23.6496    0.6506 C.2       1 UNK         0.5006 
     36 O          28.7823   24.8017    0.2449 O.2       1 UNK        -0.5103 
     37 C          29.6360   29.4621    1.7635 C.2       5 UNK         0.5055 
     38 O          30.2064   30.5435    1.6268 O.2       5 UNK        -0.5220 
     39 N          28.6845   29.2295    2.6803 N.am      6 UNK        -0.4450 
     40 CA         28.2051   30.1741    3.6970 C.3       6 UNK         0.0367 
     41 CB         27.1134   29.4911    4.5368 C.3       6 UNK        -0.1929 
     42 C          27.6966   31.5303    3.1660 C.2       6 UNK         0.5070 
     43 O          27.6358   32.4887    3.9368 O.2       6 UNK        -0.5237 
     44 N          27.3399   31.6038    1.8763 N.am      7 UNK        -0.4739 
     45 CA         26.9498   32.8425    1.2010 C.3       7 UNK         0.0276 
     46 CB         26.1198   32.4919   -0.0447 C.3       7 UNK        -0.1927 
     47 C          28.1474   33.7337    0.8151 C.2       7 UNK         0.5013 
     48 O          27.9343   34.9188    0.5540 O.2       7 UNK        -0.5193 
     49 N          29.3621   33.1674    0.7588 N.am      8 UNK        -0.4253 
     50 CA         30.5835   33.8486    0.3168 C.3       8 UNK         0.0242 
     51 CB         31.0722   33.1991   -0.9891 C.3       8 UNK        -0.2000 
     52 C          31.6988   33.8175    1.3735 C.2       8 UNK         0.4948 
     53 O          32.4254   34.8039    1.5037 O.2       8 UNK        -0.5275 
     54 N          31.8320   32.6998    2.0941 N.am      9 UNK        -0.4246 
     55 CA         32.8504   32.4492    3.1094 C.3       9 UNK         0.0261 
     56 CB         34.1251   31.8876    2.4409 C.3       9 UNK        -0.1959 
     57 C          32.2379   31.5407    4.1875 C.2       9 UNK         0.5033 
     58 O          31.1434   31.8420    4.6650 O.2       9 UNK        -0.5390 
     59 N          32.9348   30.4613    4.5576 N.am      10 UNK        -0.4215 
     60 CA         32.5178   29.4321    5.5066 C.3       10 UNK         0.0240 
     61 CB         32.4663   29.9963    6.9425 C.3       10 UNK        -0.1982 
     62 C          33.5179   28.2720    5.4229 C.2       10 UNK         0.4970 
     63 O          34.6199   28.4538    4.8965 O.2       10 UNK        -0.4916 
     64 N          33.1277   27.1141    5.9662 N.am      11 UNK        -0.4279 
     65 CA         33.9996   25.9439    6.1479 C.3       11 UNK         0.1003 
     66 C          35.1183   26.1996    7.1954 C.2       11 UNK         0.5709 
     67 N          36.2919   25.6117    7.0069 N.am      11 UNK        -0.7358 
     68 O          34.9191   26.8897    8.1940 O.2       11 UNK        -0.4999 
     69 C69        33.1847   24.6784    6.5207 C.3       12 UNK        -0.0954 
     70 S70        31.9849   24.2107    5.2301 S.3       12 UNK        -0.2268 
     71 C71        32.9918   23.1068    4.1836 C.3       12 UNK         0.0203 
     72 H72        25.4852   19.2599    0.8169 H         1 UNK         0.0888 
     73 H73        24.8763   20.6209    1.7624 H         1 UNK         0.0888 
     74 H74        24.8233   20.6766   -0.0009 H         1 UNK         0.0888 
     75 H75        26.4047   21.9845   -0.8389 H         1 UNK         0.3017 
     76 H76        28.2372   22.9980   -1.3296 H         1 UNK         0.0873 
     77 H77        29.2882   20.6004   -0.8992 H         1 UNK         0.0745 
     78 H78        30.0406   21.3374    0.4833 H         1 UNK         0.0745 
     79 H79        33.2370   21.9124   -1.4105 H         1 UNK         0.0705 
     80 H80        32.3772   20.8890   -0.2920 H         1 UNK         0.0705 
     81 H81        32.4158   21.5555    2.0077 H         1 UNK         0.1334 
     82 H82        33.5265   25.5522    3.0967 H         1 UNK         0.1417 
     83 H83        32.9560   24.5349   -1.0259 H         1 UNK         0.1562 
     84 H84        33.3003   26.8147   -0.4555 H         1 UNK         0.0748 
     85 H85        34.6148   26.8425    0.6978 H         1 UNK         0.0748 
     86 H86        30.5539   26.9735    2.4260 H         1 UNK         0.0940 
     87 H87        30.9024   26.3670    0.8384 H         1 UNK         0.0940 
     88 H88        30.4773   28.7516   -0.0686 H         1 UNK         0.0703 
     89 H89        28.6776   26.6739    0.4002 H         1 UNK         0.3081 
     90 H90        25.7279   28.1288   -1.0093 H         1 UNK         0.0719 
     91 H91        25.9365   26.0271   -2.3254 H         1 UNK         0.0809 
     92 H92        27.0801   27.2347   -2.8873 H         1 UNK         0.0809 
     93 H93        27.6415   25.8988   -1.8956 H         1 UNK         0.0809 
     94 H94        26.4848   25.6315    0.3088 H         1 UNK         0.2990 
     95 H95        25.2426   26.5706    3.4962 H         1 UNK         0.0690 
     96 H96        23.1537   25.9139    2.2866 H         1 UNK         0.0788 
     97 H97        23.7993   24.5725    3.2161 H         1 UNK         0.0788 
     98 H98        24.0180   24.6213    1.4661 H         1 UNK         0.0788 
     99 H99        26.2183   24.0854    2.5139 H         1 UNK         0.2993 
    100 H100       29.7002   24.6985    3.0108 H         1 UNK         0.0949 
    101 H101       27.6446   22.9661    4.4990 H         1 UNK         0.0767 
    102 H102       29.3849   22.6938    4.4471 H         1 UNK         0.0767 
    103 H103       28.7437   24.1174    5.2503 H         1 UNK         0.0767 
    104 H104       28.3756   22.3486    2.1668 H         1 UNK         0.3013 
    105 H105       28.3111   28.2845    2.7472 H         1 UNK         0.3121 
    106 H106       29.0482   30.3860    4.3548 H         1 UNK         0.0774 
    107 H107       26.2620   29.1951    3.9231 H         1 UNK         0.0815 
    108 H108       26.7401   30.1588    5.3146 H         1 UNK         0.0815 
    109 H109       27.4947   28.5999    5.0355 H         1 UNK         0.0815 
    110 H110       27.4205   30.7753    1.3002 H         1 UNK         0.2987 
    111 H111       26.3165   33.4230    1.8757 H         1 UNK         0.0949 
    112 H112       26.7100   31.9478   -0.7828 H         1 UNK         0.0806 
    113 H113       25.2550   31.8796    0.2117 H         1 UNK         0.0806 
    114 H114       25.7457   33.3942   -0.5302 H         1 UNK         0.0806 
    115 H115       29.4570   32.1912    1.0260 H         1 UNK         0.3010 
    116 H116       30.3774   34.9009    0.1100 H         1 UNK         0.0829 
    117 H117       30.3270   33.2924   -1.7793 H         1 UNK         0.0813 
    118 H118       31.9857   33.6765   -1.3466 H         1 UNK         0.0813 
    119 H119       31.2871   32.1378   -0.8557 H         1 UNK         0.0813 
    120 H120       31.1799   31.9274    1.9486 H         1 UNK         0.3038 
    121 H121       33.1025   33.3884    3.6060 H         1 UNK         0.0769 
    122 H122       33.9362   30.9334    1.9464 H         1 UNK         0.0811 
    123 H123       34.9262   31.7411    3.1664 H         1 UNK         0.0811 
    124 H124       34.5073   32.5764    1.6873 H         1 UNK         0.0811 
    125 H125       33.8232   30.2588    4.1135 H         1 UNK         0.3204 
    126 H126       31.5318   29.0659    5.2122 H         1 UNK         0.0748 
    127 H127       33.4303   30.4070    7.2452 H         1 UNK         0.0771 
    128 H128       31.7215   30.7858    7.0407 H         1 UNK         0.0771 
    129 H129       32.2021   29.2217    7.6634 H         1 UNK         0.0771 
    130 H130       32.2148   27.0501    6.3905 H         1 UNK         0.2980 
    131 H131       34.4925   25.7567    5.1925 H         1 UNK         0.0545 
    132 H132       36.4647   25.0347    6.1986 H         1 UNK         0.3459 
    133 H133       37.0242   25.7545    7.6848 H         1 UNK         0.3459 
    134 H134       33.8431   23.8293    6.7133 H         1 UNK         0.0616 
    135 H135       32.6336   24.8432    7.4483 H         1 UNK         0.0616 
    136 H136       32.6274   22.0868    4.3130 H         1 UNK         0.0634 
    137 H137       34.0309   23.1073    4.5140 H         1 UNK         0.0634 
@<TRIPOS>BOND
     1    1    2 1    
     2    1   72 1    
     3    1   73 1    
     4    1   74 1    
     5    2    3 2    
     6    2    4 am   BACKBONE|DICT|INTERRES
     7    4    5 1    
     8    4   75 1    
     9    5    6 1    
    10    5   35 1    
    11    5   76 1    
    12    6    7 1    
    13    6   77 1    
    14    6   78 1    
    15    7    8 1    
    16    8    9 1    
    17    8   79 1    
    18    8   80 1    
    19    9   10 ar   
    20    9   14 ar   
    21   10   11 ar   
    22   10   81 1    
    23   11   12 ar   
    24   11   71 1    
    25   12   13 ar   
    26   12   82 1    
    27   13   14 ar   
    28   13   15 1    
    29   14   83 1    
    30   15   16 1    
    31   15   84 1    
    32   15   85 1    
    33   16   17 1    
    34   17   18 1    
    35   17   86 1    
    36   17   87 1    
    37   18   19 1    
    38   18   37 1    
    39   18   88 1    
    40   19   20 am   BACKBONE|DICT|INTERRES
    41   19   89 1    
    42   20   21 2    
    43   20   22 1    
    44   22   23 1    
    45   22   24 1    
    46   22   90 1    
    47   23   91 1    
    48   23   92 1    
    49   23   93 1    
    50   24   25 am   BACKBONE|DICT|INTERRES
    51   24   94 1    
    52   25   26 2    
    53   25   27 1    
    54   27   28 1    
    55   27   29 1    
    56   27   95 1    
    57   28   96 1    
    58   28   97 1    
    59   28   98 1    
    60   29   30 am   BACKBONE|DICT|INTERRES
    61   29   99 1    
    62   30   31 2    
    63   30   32 1    
    64   32   33 1    
    65   32   34 1    
    66   32  100 1    
    67   33  101 1    
    68   33  102 1    
    69   33  103 1    
    70   34   35 am   BACKBONE|DICT|INTERRES
    71   34  104 1    
    72   35   36 2    
    73   37   38 2    
    74   37   39 am   BACKBONE|DICT|INTERRES
    75   39   40 1    
    76   39  105 1    
    77   40   41 1    
    78   40   42 1    
    79   40  106 1    
    80   41  107 1    
    81   41  108 1    
    82   41  109 1    
    83   42   43 2    
    84   42   44 am   BACKBONE|DICT|INTERRES
    85   44   45 1    
    86   44  110 1    
    87   45   46 1    
    88   45   47 1    
    89   45  111 1    
    90   46  112 1    
    91   46  113 1    
    92   46  114 1    
    93   47   48 2    
    94   47   49 am   BACKBONE|DICT|INTERRES
    95   49   50 1    
    96   49  115 1    
    97   50   51 1    
    98   50   52 1    
    99   50  116 1    
   100   51  117 1    
   101   51  118 1    
   102   51  119 1    
   103   52   53 2    
   104   52   54 am   BACKBONE|DICT|INTERRES
   105   54   55 1    
   106   54  120 1    
   107   55   56 1    
   108   55   57 1    
   109   55  121 1    
   110   56  122 1    
   111   56  123 1    
   112   56  124 1    
   113   57   58 2    
   114   57   59 am   BACKBONE|DICT|INTERRES
   115   59   60 1    
   116   59  125 1    
   117   60   61 1    
   118   60   62 1    
   119   60  126 1    
   120   61  127 1    
   121   61  128 1    
   122   61  129 1    
   123   62   63 2    
   124   62   64 am   BACKBONE|DICT|INTERRES
   125   64   65 1    
   126   64  130 1    
   127   65   66 1    
   128   65   69 1    
   129   65  131 1    
   130   66   67 am   BACKBONE|DICT|INTERRES
   131   66   68 2    
   132   67  132 1    
   133   67  133 1    
   134   69   70 1    
   135   69  134 1    
   136   69  135 1    
   137   70   71 1    
   138   71  136 1    
   139   71  137 1    
@<TRIPOS>SUBSTRUCTURE
     1 UNK         1 GROUP             0       ****    0 ROOT    
