@<TRIPOS>MOLECULE
3R136
137   139    1
SMALL
USER_CHARGES


@<TRIPOS>ATOM
      1 CA         24.7543   23.6114    4.1595 C.3       0 UNK        -0.1979 
      2 C          25.6529   24.7585    3.7053 C.2       0 UNK         0.4864 
      3 O          25.2731   25.9161    3.8682 O.2       0 UNK        -0.5359 
      4 N          26.8404   24.4947    3.1429 N.am      1 UNK        -0.4318 
      5 CA         27.3713   23.1695    2.8108 C.3       1 UNK         0.0824 
      6 C6         28.9164   23.1362    2.8129 C.3       12 UNK        -0.0944 
      7 S7         29.6690   23.4770    4.4355 S.3       12 UNK        -0.2672 
      8 C8         31.3344   22.7801    4.1820 C.3       12 UNK         0.0333 
      9 C9         32.2315   23.6584    3.3126 C.ar      12 UNK        -0.0807 
     10 C10        33.2840   24.3741    3.8944 C.ar      12 UNK        -0.0894 
     11 C11        34.1856   25.0888    3.0987 C.ar      12 UNK        -0.0804 
     12 C12        33.9946   25.1293    1.7146 C.ar      12 UNK        -0.0824 
     13 C13        32.9283   24.4495    1.1209 C.ar      12 UNK        -0.0762 
     14 C14        32.0668   23.6960    1.9221 C.ar      12 UNK        -0.0782 
     15 C15        32.7612   24.4777   -0.3926 C.3       12 UNK         0.0230 
     16 S16        32.2837   26.1281   -1.0026 S.3       12 UNK        -0.2608 
     17 C17        30.4647   26.0245   -1.1214 C.3       12 UNK        -0.0989 
     18 CA         29.7694   27.2239   -0.4205 C.3       5 UNK         0.0716 
     19 N          28.6396   27.7398   -1.1930 N.am      5 UNK        -0.4135 
     20 C          28.2041   29.0071   -1.1240 C.2       4 UNK         0.5031 
     21 O          28.7494   29.8780   -0.4452 O.2       4 UNK        -0.5229 
     22 CA         26.9663   29.3935   -1.9546 C.3       4 UNK         0.0329 
     23 CB         27.3919   30.0710   -3.2674 C.3       4 UNK        -0.2001 
     24 N          26.0887   28.2645   -2.2622 N.am      4 UNK        -0.4303 
     25 C          25.3077   27.6381   -1.3727 C.2       3 UNK         0.5044 
     26 O          25.2010   27.9759   -0.1935 O.2       3 UNK        -0.5152 
     27 CA         24.5172   26.4155   -1.8760 C.3       3 UNK         0.0319 
     28 CB         24.3233   26.3778   -3.4099 C.3       3 UNK        -0.2001 
     29 N          25.1054   25.1586   -1.4005 N.am      3 UNK        -0.4354 
     30 C          26.3596   24.7271   -1.5998 C.2       2 UNK         0.4964 
     31 O          27.2263   25.3599   -2.2084 O.2       2 UNK        -0.5047 
     32 CA         26.7036   23.3755   -0.9693 C.3       2 UNK         0.0288 
     33 CB         27.8706   22.6625   -1.6814 C.3       2 UNK        -0.2113 
     34 N          27.0444   23.6079    0.4283 N.am      2 UNK        -0.4145 
     35 C          26.8544   22.7376    1.4274 C.2       1 UNK         0.5006 
     36 O          26.3046   21.6432    1.2958 O.2       1 UNK        -0.5103 
     37 C          29.2708   26.8544    0.9840 C.2       5 UNK         0.5055 
     38 O          28.3695   26.0197    1.1054 O.2       5 UNK        -0.5220 
     39 N          29.8598   27.4684    2.0113 N.am      6 UNK        -0.4450 
     40 CA         29.5839   27.2150    3.4180 C.3       6 UNK         0.0367 
     41 CB         28.2189   27.8064    3.8216 C.3       6 UNK        -0.1929 
     42 C          30.6959   27.8676    4.2340 C.2       6 UNK         0.5070 
     43 O          31.2143   28.9065    3.8182 O.2       6 UNK        -0.5237 
     44 N          30.9889   27.3134    5.4161 N.am      7 UNK        -0.4739 
     45 CA         31.9193   27.9086    6.3834 C.3       7 UNK         0.0276 
     46 CB         32.1513   26.9341    7.5479 C.3       7 UNK        -0.1927 
     47 C          31.4391   29.2797    6.8935 C.2       7 UNK         0.5013 
     48 O          32.2461   30.1995    7.0254 O.2       7 UNK        -0.5193 
     49 N          30.1181   29.4139    7.0847 N.am      8 UNK        -0.4253 
     50 CA         29.4349   30.6658    7.4277 C.3       8 UNK         0.0242 
     51 CB         27.9758   30.3553    7.7992 C.3       8 UNK        -0.2000 
     52 C          29.4889   31.7312    6.3145 C.2       8 UNK         0.4948 
     53 O          29.3666   32.9181    6.6170 O.2       8 UNK        -0.5275 
     54 N          29.6879   31.2994    5.0608 N.am      9 UNK        -0.4246 
     55 CA         29.8784   32.1595    3.8900 C.3       9 UNK         0.0261 
     56 CB         29.1830   31.5127    2.6780 C.3       9 UNK        -0.1959 
     57 C          31.3687   32.4264    3.5966 C.2       9 UNK         0.5033 
     58 O          31.6690   33.0514    2.5787 O.2       9 UNK        -0.5390 
     59 N          32.2682   31.9536    4.4749 N.am      10 UNK        -0.4215 
     60 CA         33.7299   32.0149    4.3800 C.3       10 UNK         0.0240 
     61 CB         34.2382   33.4736    4.3848 C.3       10 UNK        -0.1982 
     62 C          34.3049   31.1694    3.2263 C.2       10 UNK         0.4970 
     63 O          35.3421   31.5333    2.6680 O.2       10 UNK        -0.4916 
     64 N          33.6531   30.0362    2.9274 N.am      11 UNK        -0.4279 
     65 CA         34.0949   29.0061    1.9745 C.3       11 UNK         0.1003 
     66 C          34.1400   29.5199    0.5031 C.2       11 UNK         0.5709 
     67 N          35.0297   29.0109   -0.3403 N.am      11 UNK        -0.7358 
     68 O          33.3247   30.3449    0.0959 O.2       11 UNK        -0.4999 
     69 C69        35.3879   28.2846    2.4608 C.3       12 UNK        -0.0954 
     70 S70        35.1632   27.5049    4.0979 S.3       12 UNK        -0.2268 
     71 C71        35.4097   25.7424    3.7273 C.3       12 UNK         0.0203 
     72 H72        24.5349   22.9311    3.3373 H         1 UNK         0.0888 
     73 H73        25.2246   23.0508    4.9669 H         1 UNK         0.0888 
     74 H74        23.8044   23.9947    4.5320 H         1 UNK         0.0888 
     75 H75        27.3947   25.2690    2.7956 H         1 UNK         0.3017 
     76 H76        27.0297   22.4352    3.5421 H         1 UNK         0.0873 
     77 H77        29.3083   23.8663    2.1065 H         1 UNK         0.0745 
     78 H78        29.2660   22.1576    2.4770 H         1 UNK         0.0745 
     79 H79        31.2562   21.7847    3.7428 H         1 UNK         0.0705 
     80 H80        31.7915   22.6344    5.1620 H         1 UNK         0.0705 
     81 H81        33.4342   24.3333    4.9647 H         1 UNK         0.1334 
     82 H82        34.6898   25.6656    1.0856 H         1 UNK         0.1417 
     83 H83        31.2866   23.1154    1.4534 H         1 UNK         0.1562 
     84 H84        32.0433   23.7282   -0.7291 H         1 UNK         0.0748 
     85 H85        33.7125   24.2049   -0.8519 H         1 UNK         0.0748 
     86 H86        30.1080   25.0637   -0.7457 H         1 UNK         0.0940 
     87 H87        30.2265   26.0176   -2.1866 H         1 UNK         0.0940 
     88 H88        30.4958   28.0352   -0.3278 H         1 UNK         0.0703 
     89 H89        28.0963   27.0502   -1.7046 H         1 UNK         0.3081 
     90 H90        26.3948   30.1168   -1.3688 H         1 UNK         0.0719 
     91 H91        28.0245   30.9381   -3.0712 H         1 UNK         0.0809 
     92 H92        27.9583   29.3931   -3.9073 H         1 UNK         0.0809 
     93 H93        26.5281   30.4241   -3.8310 H         1 UNK         0.0809 
     94 H94        26.1294   27.8958   -3.2015 H         1 UNK         0.2990 
     95 H95        23.5268   26.4872   -1.4236 H         1 UNK         0.0690 
     96 H96        23.6510   25.5686   -3.6953 H         1 UNK         0.0788 
     97 H97        25.2598   26.2260   -3.9477 H         1 UNK         0.0788 
     98 H98        23.8764   27.3043   -3.7735 H         1 UNK         0.0788 
     99 H99        24.4948   24.5871   -0.8332 H         1 UNK         0.2993 
    100 H100       25.8189   22.7380   -1.0369 H         1 UNK         0.0949 
    101 H101       27.6535   22.5249   -2.7414 H         1 UNK         0.0767 
    102 H102       28.7987   23.2297   -1.6087 H         1 UNK         0.0767 
    103 H103       28.0497   21.6749   -1.2560 H         1 UNK         0.0767 
    104 H104       27.4765   24.5096    0.6347 H         1 UNK         0.3013 
    105 H105       30.5890   28.1527    1.8523 H         1 UNK         0.3121 
    106 H106       29.5953   26.1398    3.5873 H         1 UNK         0.0774 
    107 H107       27.4106   27.4303    3.1962 H         1 UNK         0.0815 
    108 H108       27.9704   27.5517    4.8524 H         1 UNK         0.0815 
    109 H109       28.2082   28.8931    3.7402 H         1 UNK         0.0815 
    110 H110       30.5292   26.4553    5.6875 H         1 UNK         0.2987 
    111 H111       32.8728   28.0679    5.8764 H         1 UNK         0.0949 
    112 H112       32.5727   25.9922    7.1960 H         1 UNK         0.0806 
    113 H113       32.8545   27.3515    8.2700 H         1 UNK         0.0806 
    114 H114       31.2274   26.7111    8.0827 H         1 UNK         0.0806 
    115 H115       29.5357   28.6000    6.9519 H         1 UNK         0.3010 
    116 H116       29.9311   31.0874    8.3046 H         1 UNK         0.0829 
    117 H117       27.9177   29.6668    8.6425 H         1 UNK         0.0813 
    118 H118       27.4453   31.2635    8.0892 H         1 UNK         0.0813 
    119 H119       27.4307   29.9129    6.9642 H         1 UNK         0.0813 
    120 H120       29.8314   30.3107    4.9042 H         1 UNK         0.3038 
    121 H121       29.4086   33.1292    4.0669 H         1 UNK         0.0769 
    122 H122       29.2351   32.1618    1.8029 H         1 UNK         0.0811 
    123 H123       28.1274   31.3269    2.8753 H         1 UNK         0.0811 
    124 H124       29.6456   30.5655    2.3996 H         1 UNK         0.0811 
    125 H125       31.9217   31.4461    5.2808 H         1 UNK         0.3204 
    126 H126       34.0992   31.5452    5.2929 H         1 UNK         0.0748 
    127 H127       35.3235   33.5083    4.4879 H         1 UNK         0.0771 
    128 H128       33.9852   33.9958    3.4618 H         1 UNK         0.0771 
    129 H129       33.8175   34.0378    5.2171 H         1 UNK         0.0771 
    130 H130       32.7789   29.8236    3.4005 H         1 UNK         0.2980 
    131 H131       33.2983   28.2613    1.9693 H         1 UNK         0.0545 
    132 H132       35.0325   29.3315   -1.2955 H         1 UNK         0.3459 
    133 H133       35.7032   28.3255   -0.0403 H         1 UNK         0.3459 
    134 H134       35.7083   27.5247    1.7506 H         1 UNK         0.0616 
    135 H135       36.2186   28.9880    2.5298 H         1 UNK         0.0616 
    136 H136       36.2792   25.6193    3.0799 H         1 UNK         0.0634 
    137 H137       35.6602   25.2320    4.6585 H         1 UNK         0.0634 
@<TRIPOS>BOND
     1    1    2 1    
     2    1   72 1    
     3    1   73 1    
     4    1   74 1    
     5    2    3 2    
     6    2    4 am   BACKBONE|DICT|INTERRES
     7    4    5 1    
     8    4   75 1    
     9    5    6 1    
    10    5   35 1    
    11    5   76 1    
    12    6    7 1    
    13    6   77 1    
    14    6   78 1    
    15    7    8 1    
    16    8    9 1    
    17    8   79 1    
    18    8   80 1    
    19    9   10 ar   
    20    9   14 ar   
    21   10   11 ar   
    22   10   81 1    
    23   11   12 ar   
    24   11   71 1    
    25   12   13 ar   
    26   12   82 1    
    27   13   14 ar   
    28   13   15 1    
    29   14   83 1    
    30   15   16 1    
    31   15   84 1    
    32   15   85 1    
    33   16   17 1    
    34   17   18 1    
    35   17   86 1    
    36   17   87 1    
    37   18   19 1    
    38   18   37 1    
    39   18   88 1    
    40   19   20 am   BACKBONE|DICT|INTERRES
    41   19   89 1    
    42   20   21 2    
    43   20   22 1    
    44   22   23 1    
    45   22   24 1    
    46   22   90 1    
    47   23   91 1    
    48   23   92 1    
    49   23   93 1    
    50   24   25 am   BACKBONE|DICT|INTERRES
    51   24   94 1    
    52   25   26 2    
    53   25   27 1    
    54   27   28 1    
    55   27   29 1    
    56   27   95 1    
    57   28   96 1    
    58   28   97 1    
    59   28   98 1    
    60   29   30 am   BACKBONE|DICT|INTERRES
    61   29   99 1    
    62   30   31 2    
    63   30   32 1    
    64   32   33 1    
    65   32   34 1    
    66   32  100 1    
    67   33  101 1    
    68   33  102 1    
    69   33  103 1    
    70   34   35 am   BACKBONE|DICT|INTERRES
    71   34  104 1    
    72   35   36 2    
    73   37   38 2    
    74   37   39 am   BACKBONE|DICT|INTERRES
    75   39   40 1    
    76   39  105 1    
    77   40   41 1    
    78   40   42 1    
    79   40  106 1    
    80   41  107 1    
    81   41  108 1    
    82   41  109 1    
    83   42   43 2    
    84   42   44 am   BACKBONE|DICT|INTERRES
    85   44   45 1    
    86   44  110 1    
    87   45   46 1    
    88   45   47 1    
    89   45  111 1    
    90   46  112 1    
    91   46  113 1    
    92   46  114 1    
    93   47   48 2    
    94   47   49 am   BACKBONE|DICT|INTERRES
    95   49   50 1    
    96   49  115 1    
    97   50   51 1    
    98   50   52 1    
    99   50  116 1    
   100   51  117 1    
   101   51  118 1    
   102   51  119 1    
   103   52   53 2    
   104   52   54 am   BACKBONE|DICT|INTERRES
   105   54   55 1    
   106   54  120 1    
   107   55   56 1    
   108   55   57 1    
   109   55  121 1    
   110   56  122 1    
   111   56  123 1    
   112   56  124 1    
   113   57   58 2    
   114   57   59 am   BACKBONE|DICT|INTERRES
   115   59   60 1    
   116   59  125 1    
   117   60   61 1    
   118   60   62 1    
   119   60  126 1    
   120   61  127 1    
   121   61  128 1    
   122   61  129 1    
   123   62   63 2    
   124   62   64 am   BACKBONE|DICT|INTERRES
   125   64   65 1    
   126   64  130 1    
   127   65   66 1    
   128   65   69 1    
   129   65  131 1    
   130   66   67 am   BACKBONE|DICT|INTERRES
   131   66   68 2    
   132   67  132 1    
   133   67  133 1    
   134   69   70 1    
   135   69  134 1    
   136   69  135 1    
   137   70   71 1    
   138   71  136 1    
   139   71  137 1    
@<TRIPOS>SUBSTRUCTURE
     1 UNK         1 GROUP             0       ****    0 ROOT    
