@<TRIPOS>MOLECULE
3R136
137   139    1
SMALL
USER_CHARGES


@<TRIPOS>ATOM
      1 CA         27.8450   20.2703    1.6015 C.3       0 UNK        -0.1979 
      2 C          28.1817   21.7435    1.4244 C.2       0 UNK         0.4864 
      3 O          28.2077   22.2328    0.2942 O.2       0 UNK        -0.5359 
      4 N          28.4574   22.4466    2.5300 N.am      1 UNK        -0.4318 
      5 CA         28.7260   23.8886    2.5508 C.3       1 UNK         0.0824 
      6 C6         29.5783   24.3082    3.7781 C.3       12 UNK        -0.0944 
      7 S7         31.1520   23.4197    4.0670 S.3       12 UNK        -0.2672 
      8 C8         31.7441   22.8576    2.4319 C.3       12 UNK         0.0333 
      9 C9         32.1596   23.9902    1.5010 C.ar      12 UNK        -0.0807 
     10 C10        33.0987   24.9369    1.9190 C.ar      12 UNK        -0.0894 
     11 C11        33.5505   25.9274    1.0438 C.ar      12 UNK        -0.0804 
     12 C12        33.0594   25.9665   -0.2645 C.ar      12 UNK        -0.0824 
     13 C13        32.1232   25.0211   -0.7000 C.ar      12 UNK        -0.0762 
     14 C14        31.6697   24.0424    0.1910 C.ar      12 UNK        -0.0782 
     15 C15        31.6715   25.0025   -2.1555 C.3       12 UNK         0.0230 
     16 S16        30.8368   26.5373   -2.6607 S.3       12 UNK        -0.2608 
     17 C17        29.1371   26.2505   -2.0629 C.3       12 UNK        -0.0989 
     18 CA         28.2497   27.5144   -2.2447 C.3       5 UNK         0.0716 
     19 N          26.8520   27.1539   -2.4917 N.am      5 UNK        -0.4135 
     20 C          26.1576   27.4562   -3.5972 C.2       4 UNK         0.5031 
     21 O          26.6306   28.0686   -4.5563 O.2       4 UNK        -0.5229 
     22 CA         24.6909   26.9885   -3.6813 C.3       4 UNK         0.0329 
     23 CB         24.5711   25.7690   -4.6107 C.3       4 UNK        -0.2001 
     24 N          24.1031   26.6528   -2.3840 N.am      4 UNK        -0.4303 
     25 C          23.6971   27.5445   -1.4712 C.2       3 UNK         0.5044 
     26 O          23.7145   28.7635   -1.6460 O.2       3 UNK        -0.5152 
     27 CA         23.2014   26.9865   -0.1230 C.3       3 UNK         0.0319 
     28 CB         22.6674   25.5375   -0.2009 C.3       3 UNK        -0.2001 
     29 N          24.2273   27.1058    0.9194 N.am      3 UNK        -0.4354 
     30 C          25.4674   26.5933    0.8976 C.2       2 UNK         0.4964 
     31 O          25.9143   25.9202   -0.0363 O.2       2 UNK        -0.5047 
     32 CA         26.3755   26.9282    2.0980 C.3       2 UNK         0.0288 
     33 CB         25.6141   27.0933    3.4341 C.3       2 UNK        -0.2113 
     34 N          27.4841   25.9753    2.2314 N.am      2 UNK        -0.4145 
     35 C          27.3955   24.6716    2.5289 C.2       1 UNK         0.5006 
     36 O          26.3381   24.1013    2.8174 O.2       1 UNK        -0.5103 
     37 C          28.3467   28.4775   -1.0450 C.2       5 UNK         0.5055 
     38 O          27.3288   28.9326   -0.5173 O.2       5 UNK        -0.5220 
     39 N          29.5849   28.7744   -0.6365 N.am      6 UNK        -0.4450 
     40 CA         29.9100   29.5093    0.5831 C.3       6 UNK         0.0367 
     41 CB         31.3664   29.9916    0.5000 C.3       6 UNK        -0.1929 
     42 C          29.7066   28.6241    1.8226 C.2       6 UNK         0.5070 
     43 O          29.8513   27.4012    1.7413 O.2       6 UNK        -0.5237 
     44 N          29.3690   29.2569    2.9503 N.am      7 UNK        -0.4739 
     45 CA         29.3065   28.6137    4.2627 C.3       7 UNK         0.0276 
     46 CB         28.3792   29.4326    5.1748 C.3       7 UNK        -0.1927 
     47 C          30.7142   28.5369    4.8682 C.2       7 UNK         0.5013 
     48 O          31.5226   29.4345    4.6234 O.2       7 UNK        -0.5193 
     49 N          30.9681   27.5217    5.7054 N.am      8 UNK        -0.4253 
     50 CA         32.2634   27.2838    6.3602 C.3       8 UNK         0.0242 
     51 CB         32.1760   26.0148    7.2222 C.3       8 UNK        -0.2000 
     52 C          32.7853   28.4708    7.1949 C.2       8 UNK         0.4948 
     53 O          33.9960   28.6886    7.2490 O.2       8 UNK        -0.5275 
     54 N          31.8619   29.2452    7.7827 N.am      9 UNK        -0.4246 
     55 CA         32.1432   30.4918    8.4983 C.3       9 UNK         0.0261 
     56 CB         30.8822   30.9303    9.2607 C.3       9 UNK        -0.1959 
     57 C          32.6447   31.6323    7.5902 C.2       9 UNK         0.5033 
     58 O          33.3604   32.5071    8.0801 O.2       9 UNK        -0.5390 
     59 N          32.2712   31.6138    6.3020 N.am      10 UNK        -0.4215 
     60 CA         32.7635   32.5466    5.2868 C.3       10 UNK         0.0240 
     61 CB         31.6942   32.7557    4.2006 C.3       10 UNK        -0.1982 
     62 C          34.0798   32.0463    4.6727 C.2       10 UNK         0.4970 
     63 O          34.9579   32.8654    4.3986 O.2       10 UNK        -0.4916 
     64 N          34.2005   30.7241    4.4816 N.am      11 UNK        -0.4279 
     65 CA         35.4291   30.0524    4.0283 C.3       11 UNK         0.1003 
     66 C          36.6180   30.2271    5.0134 C.2       11 UNK         0.5709 
     67 N          36.4066   30.0485    6.3121 N.am      11 UNK        -0.7358 
     68 O          37.7343   30.5255    4.5957 O.2       11 UNK        -0.4999 
     69 C69        35.2085   28.5466    3.7346 C.3       12 UNK        -0.0954 
     70 S70        33.8692   28.2214    2.5416 S.3       12 UNK        -0.2268 
     71 C71        34.6049   26.9171    1.5118 C.3       12 UNK         0.0203 
     72 H72        27.8829   19.9662    2.6475 H         1 UNK         0.0888 
     73 H73        28.5499   19.6545    1.0438 H         1 UNK         0.0888 
     74 H74        26.8425   20.0677    1.2256 H         1 UNK         0.0888 
     75 H75        28.3976   22.0019    3.4344 H         1 UNK         0.3017 
     76 H76        29.2694   24.1614    1.6449 H         1 UNK         0.0873 
     77 H77        28.9911   24.2155    4.6940 H         1 UNK         0.0745 
     78 H78        29.8384   25.3647    3.6966 H         1 UNK         0.0745 
     79 H79        32.6195   22.2284    2.5974 H         1 UNK         0.0705 
     80 H80        31.0101   22.2066    1.9614 H         1 UNK         0.0705 
     81 H81        33.4917   24.8939    2.9258 H         1 UNK         0.1334 
     82 H82        33.4220   26.7173   -0.9533 H         1 UNK         0.1417 
     83 H83        30.9618   23.2968   -0.1467 H         1 UNK         0.1562 
     84 H84        31.0183   24.1519   -2.3574 H         1 UNK         0.0748 
     85 H85        32.5505   24.8647   -2.7867 H         1 UNK         0.0748 
     86 H86        29.1512   25.9048   -1.0260 H         1 UNK         0.0940 
     87 H87        28.7338   25.4203   -2.6456 H         1 UNK         0.0940 
     88 H88        28.6222   28.0792   -3.1018 H         1 UNK         0.0703 
     89 H89        26.3774   26.7057   -1.7113 H         1 UNK         0.3081 
     90 H90        24.1140   27.8062   -4.1188 H         1 UNK         0.0719 
     91 H91        25.1242   24.9114   -4.2255 H         1 UNK         0.0809 
     92 H92        23.5311   25.4688   -4.7404 H         1 UNK         0.0809 
     93 H93        24.9671   25.9931   -5.6023 H         1 UNK         0.0809 
     94 H94        24.0820   25.6749   -2.1321 H         1 UNK         0.2990 
     95 H95        22.3702   27.6235    0.1835 H         1 UNK         0.0690 
     96 H96        22.2025   25.2455    0.7408 H         1 UNK         0.0788 
     97 H97        23.4520   24.8108   -0.4134 H         1 UNK         0.0788 
     98 H98        21.9055   25.4403   -0.9756 H         1 UNK         0.0788 
     99 H99        23.9713   27.6767    1.7126 H         1 UNK         0.2993 
    100 H100       26.8348   27.8891    1.8672 H         1 UNK         0.0949 
    101 H101       26.3036   27.2082    4.2702 H         1 UNK         0.0767 
    102 H102       24.9809   27.9808    3.4245 H         1 UNK         0.0767 
    103 H103       24.9758   26.2353    3.6488 H         1 UNK         0.0767 
    104 H104       28.4009   26.3577    1.9985 H         1 UNK         0.3013 
    105 H105       30.3537   28.3040   -1.0963 H         1 UNK         0.3121 
    106 H106       29.2531   30.3788    0.6569 H         1 UNK         0.0774 
    107 H107       31.5073   30.6904   -0.3245 H         1 UNK         0.0815 
    108 H108       32.0548   29.1583    0.3545 H         1 UNK         0.0815 
    109 H109       31.6664   30.5032    1.4159 H         1 UNK         0.0815 
    110 H110       29.3132   30.2649    2.9449 H         1 UNK         0.2987 
    111 H111       28.9020   27.6055    4.1597 H         1 UNK         0.0949 
    112 H112       28.7609   30.4412    5.3410 H         1 UNK         0.0806 
    113 H113       27.3802   29.5207    4.7474 H         1 UNK         0.0806 
    114 H114       28.2708   28.9595    6.1516 H         1 UNK         0.0806 
    115 H115       30.2448   26.8403    5.8834 H         1 UNK         0.3010 
    116 H116       32.9904   27.1029    5.5665 H         1 UNK         0.0829 
    117 H117       31.9176   25.1431    6.6206 H         1 UNK         0.0813 
    118 H118       33.1333   25.8020    7.7003 H         1 UNK         0.0813 
    119 H119       31.4310   26.1122    8.0127 H         1 UNK         0.0813 
    120 H120       30.8919   28.9817    7.6904 H         1 UNK         0.3038 
    121 H121       32.9301   30.2872    9.2276 H         1 UNK         0.0769 
    122 H122       30.0501   31.1318    8.5848 H         1 UNK         0.0811 
    123 H123       31.0680   31.8428    9.8291 H         1 UNK         0.0811 
    124 H124       30.5623   30.1685    9.9720 H         1 UNK         0.0811 
    125 H125       31.7450   30.8194    5.9512 H         1 UNK         0.3204 
    126 H126       32.9570   33.5153    5.7527 H         1 UNK         0.0748 
    127 H127       30.7571   33.1103    4.6301 H         1 UNK         0.0771 
    128 H128       32.0213   33.5018    3.4753 H         1 UNK         0.0771 
    129 H129       31.4846   31.8400    3.6481 H         1 UNK         0.0771 
    130 H130       33.4005   30.1260    4.6574 H         1 UNK         0.2980 
    131 H131       35.7192   30.5292    3.0900 H         1 UNK         0.0545 
    132 H132       37.1706   30.1629    6.9581 H         1 UNK         0.3459 
    133 H133       35.5043   29.7212    6.6466 H         1 UNK         0.3459 
    134 H134       36.1349   28.1130    3.3540 H         1 UNK         0.0616 
    135 H135       34.9773   28.0061    4.6532 H         1 UNK         0.0616 
    136 H136       35.3645   26.3742    2.0759 H         1 UNK         0.0634 
    137 H137       35.1169   27.3755    0.6645 H         1 UNK         0.0634 
@<TRIPOS>BOND
     1    1    2 1    
     2    1   72 1    
     3    1   73 1    
     4    1   74 1    
     5    2    3 2    
     6    2    4 am   BACKBONE|DICT|INTERRES
     7    4    5 1    
     8    4   75 1    
     9    5    6 1    
    10    5   35 1    
    11    5   76 1    
    12    6    7 1    
    13    6   77 1    
    14    6   78 1    
    15    7    8 1    
    16    8    9 1    
    17    8   79 1    
    18    8   80 1    
    19    9   10 ar   
    20    9   14 ar   
    21   10   11 ar   
    22   10   81 1    
    23   11   12 ar   
    24   11   71 1    
    25   12   13 ar   
    26   12   82 1    
    27   13   14 ar   
    28   13   15 1    
    29   14   83 1    
    30   15   16 1    
    31   15   84 1    
    32   15   85 1    
    33   16   17 1    
    34   17   18 1    
    35   17   86 1    
    36   17   87 1    
    37   18   19 1    
    38   18   37 1    
    39   18   88 1    
    40   19   20 am   BACKBONE|DICT|INTERRES
    41   19   89 1    
    42   20   21 2    
    43   20   22 1    
    44   22   23 1    
    45   22   24 1    
    46   22   90 1    
    47   23   91 1    
    48   23   92 1    
    49   23   93 1    
    50   24   25 am   BACKBONE|DICT|INTERRES
    51   24   94 1    
    52   25   26 2    
    53   25   27 1    
    54   27   28 1    
    55   27   29 1    
    56   27   95 1    
    57   28   96 1    
    58   28   97 1    
    59   28   98 1    
    60   29   30 am   BACKBONE|DICT|INTERRES
    61   29   99 1    
    62   30   31 2    
    63   30   32 1    
    64   32   33 1    
    65   32   34 1    
    66   32  100 1    
    67   33  101 1    
    68   33  102 1    
    69   33  103 1    
    70   34   35 am   BACKBONE|DICT|INTERRES
    71   34  104 1    
    72   35   36 2    
    73   37   38 2    
    74   37   39 am   BACKBONE|DICT|INTERRES
    75   39   40 1    
    76   39  105 1    
    77   40   41 1    
    78   40   42 1    
    79   40  106 1    
    80   41  107 1    
    81   41  108 1    
    82   41  109 1    
    83   42   43 2    
    84   42   44 am   BACKBONE|DICT|INTERRES
    85   44   45 1    
    86   44  110 1    
    87   45   46 1    
    88   45   47 1    
    89   45  111 1    
    90   46  112 1    
    91   46  113 1    
    92   46  114 1    
    93   47   48 2    
    94   47   49 am   BACKBONE|DICT|INTERRES
    95   49   50 1    
    96   49  115 1    
    97   50   51 1    
    98   50   52 1    
    99   50  116 1    
   100   51  117 1    
   101   51  118 1    
   102   51  119 1    
   103   52   53 2    
   104   52   54 am   BACKBONE|DICT|INTERRES
   105   54   55 1    
   106   54  120 1    
   107   55   56 1    
   108   55   57 1    
   109   55  121 1    
   110   56  122 1    
   111   56  123 1    
   112   56  124 1    
   113   57   58 2    
   114   57   59 am   BACKBONE|DICT|INTERRES
   115   59   60 1    
   116   59  125 1    
   117   60   61 1    
   118   60   62 1    
   119   60  126 1    
   120   61  127 1    
   121   61  128 1    
   122   61  129 1    
   123   62   63 2    
   124   62   64 am   BACKBONE|DICT|INTERRES
   125   64   65 1    
   126   64  130 1    
   127   65   66 1    
   128   65   69 1    
   129   65  131 1    
   130   66   67 am   BACKBONE|DICT|INTERRES
   131   66   68 2    
   132   67  132 1    
   133   67  133 1    
   134   69   70 1    
   135   69  134 1    
   136   69  135 1    
   137   70   71 1    
   138   71  136 1    
   139   71  137 1    
@<TRIPOS>SUBSTRUCTURE
     1 UNK         1 GROUP             0       ****    0 ROOT    
