@<TRIPOS>MOLECULE
3R136
137   139    1
SMALL
USER_CHARGES


@<TRIPOS>ATOM
      1 CA         26.3193   21.3161    0.1605 C.3       0 UNK        -0.1979 
      2 C          27.1534   22.2533   -0.6993 C.2       0 UNK         0.4864 
      3 O          26.8295   22.4664   -1.8692 O.2       0 UNK        -0.5359 
      4 N          28.2112   22.8363   -0.1229 N.am      1 UNK        -0.4318 
      5 CA         29.0815   23.8285   -0.7595 C.3       1 UNK         0.0824 
      6 C6         30.3720   24.0638    0.0600 C.3       12 UNK        -0.0944 
      7 S7         31.4900   22.6247   -0.0100 S.3       12 UNK        -0.2672 
      8 C8         31.1386   21.7685    1.5656 C.3       12 UNK         0.0333 
      9 C9         31.4681   22.5822    2.8154 C.ar      12 UNK        -0.0807 
     10 C10        32.6105   23.3896    2.8779 C.ar      12 UNK        -0.0894 
     11 C11        32.9018   24.1233    4.0305 C.ar      12 UNK        -0.0804 
     12 C12        32.0522   24.0361    5.1355 C.ar      12 UNK        -0.0824 
     13 C13        30.9112   23.2296    5.0917 C.ar      12 UNK        -0.0762 
     14 C14        30.6278   22.5015    3.9317 C.ar      12 UNK        -0.0782 
     15 C15        29.9831   23.1552    6.2980 C.3       12 UNK         0.0230 
     16 S16        28.3796   23.9725    6.0014 S.3       12 UNK        -0.2608 
     17 C17        28.8941   25.6295    5.4348 C.3       12 UNK        -0.0989 
     18 CA         28.7485   25.7725    3.8959 C.3       5 UNK         0.0716 
     19 N          27.3483   25.8509    3.4829 N.am      5 UNK        -0.4135 
     20 C          26.6631   24.9029    2.8356 C.2       4 UNK         0.5031 
     21 O          27.1230   23.7964    2.5436 O.2       4 UNK        -0.5229 
     22 CA         25.2240   25.2487    2.4173 C.3       4 UNK         0.0329 
     23 CB         24.7810   26.6902    2.7604 C.3       4 UNK        -0.2001 
     24 N          25.0877   25.0165    0.9817 N.am      4 UNK        -0.4303 
     25 C          23.9444   24.7183    0.3497 C.2       3 UNK         0.5044 
     26 O          22.8652   24.5968    0.9322 O.2       3 UNK        -0.5152 
     27 CA         24.0011   24.4875   -1.1773 C.3       3 UNK         0.0319 
     28 CB         22.7226   24.9648   -1.8996 C.3       3 UNK        -0.2001 
     29 N          25.2094   25.0166   -1.8228 N.am      3 UNK        -0.4354 
     30 C          25.5806   26.3023   -1.9530 C.2       2 UNK         0.4964 
     31 O          24.8824   27.2573   -1.6103 O.2       2 UNK        -0.5047 
     32 CA         26.9920   26.5507   -2.5355 C.3       2 UNK         0.0288 
     33 CB         27.5501   27.9448   -2.1696 C.3       2 UNK        -0.2113 
     34 N          27.9473   25.4909   -2.1721 N.am      2 UNK        -0.4145 
     35 C          28.2829   25.1305   -0.9244 C.2       1 UNK         0.5006 
     36 O          27.9183   25.7338    0.0852 O.2       1 UNK        -0.5103 
     37 C          29.4625   27.0119    3.3305 C.2       5 UNK         0.5055 
     38 O          29.9704   27.8350    4.0944 O.2       5 UNK        -0.5220 
     39 N          29.4380   27.1291    1.9941 N.am      6 UNK        -0.4450 
     40 CA         29.9270   28.2410    1.1737 C.3       6 UNK         0.0367 
     41 CB         31.4405   28.4732    1.3827 C.3       6 UNK        -0.1929 
     42 C          29.0826   29.5180    1.3523 C.2       6 UNK         0.5070 
     43 O          28.0086   29.4828    1.9591 O.2       6 UNK        -0.5237 
     44 N          29.5662   30.6224    0.7796 N.am      7 UNK        -0.4739 
     45 CA         28.9763   31.9527    0.8621 C.3       7 UNK         0.0276 
     46 CB         27.9883   32.1588   -0.2993 C.3       7 UNK        -0.1927 
     47 C          30.1181   32.9715    0.8088 C.2       7 UNK         0.5013 
     48 O          31.1463   32.6928    0.1833 O.2       7 UNK        -0.5193 
     49 N          29.9169   34.1242    1.4622 N.am      8 UNK        -0.4253 
     50 CA         30.8462   35.2513    1.6378 C.3       8 UNK         0.0242 
     51 CB         31.2387   35.8896    0.2897 C.3       8 UNK        -0.2000 
     52 C          32.0857   34.9102    2.4861 C.2       8 UNK         0.4948 
     53 O          32.3154   35.5624    3.5055 O.2       8 UNK        -0.5275 
     54 N          32.8508   33.8974    2.0659 N.am      9 UNK        -0.4246 
     55 CA         33.9857   33.3440    2.7981 C.3       9 UNK         0.0261 
     56 CB         34.9524   32.6773    1.8054 C.3       9 UNK        -0.1959 
     57 C          33.4868   32.3252    3.8317 C.2       9 UNK         0.5033 
     58 O          32.7309   31.4186    3.4749 O.2       9 UNK        -0.5390 
     59 N          33.9386   32.4715    5.0814 N.am      10 UNK        -0.4215 
     60 CA         33.6675   31.5402    6.1745 C.3       10 UNK         0.0240 
     61 CB         33.5837   32.3256    7.4970 C.3       10 UNK        -0.1982 
     62 C          34.7702   30.4720    6.1990 C.2       10 UNK         0.4970 
     63 O          35.7650   30.6373    6.9077 O.2       10 UNK        -0.4916 
     64 N          34.5982   29.4221    5.3876 N.am      11 UNK        -0.4279 
     65 CA         35.5509   28.3072    5.2557 C.3       11 UNK         0.1003 
     66 C          35.6475   27.3559    6.4861 C.2       11 UNK         0.5709 
     67 N          34.7305   27.4098    7.4450 N.am      11 UNK        -0.7358 
     68 O          36.5800   26.5605    6.5736 O.2       11 UNK        -0.4999 
     69 C69        35.3481   27.5344    3.9253 C.3       12 UNK        -0.0954 
     70 S70        33.7095   26.7458    3.7632 S.3       12 UNK        -0.2268 
     71 C71        34.1356   25.0081    4.0870 C.3       12 UNK         0.0203 
     72 H72        26.7092   21.2434    1.1760 H         1 UNK         0.0888 
     73 H73        26.3101   20.3167   -0.2734 H         1 UNK         0.0888 
     74 H74        25.2920   21.6736    0.2199 H         1 UNK         0.0888 
     75 H75        28.3421   22.7230    0.8737 H         1 UNK         0.3017 
     76 H76        29.3609   23.4605   -1.7494 H         1 UNK         0.0873 
     77 H77        30.1405   24.3114    1.0974 H         1 UNK         0.0745 
     78 H78        30.9265   24.9174   -0.3353 H         1 UNK         0.0745 
     79 H79        30.0906   21.4664    1.5702 H         1 UNK         0.0705 
     80 H80        31.7218   20.8473    1.5937 H         1 UNK         0.0705 
     81 H81        33.2735   23.4534    2.0262 H         1 UNK         0.1334 
     82 H82        32.2777   24.6075    6.0258 H         1 UNK         0.1417 
     83 H83        29.7414   21.8820    3.8992 H         1 UNK         0.1562 
     84 H84        30.4513   23.6057    7.1746 H         1 UNK         0.0748 
     85 H85        29.8051   22.1094    6.5523 H         1 UNK         0.0748 
     86 H86        28.2919   26.3802    5.9494 H         1 UNK         0.0940 
     87 H87        29.9224   25.8086    5.7529 H         1 UNK         0.0940 
     88 H88        29.2310   24.9161    3.4218 H         1 UNK         0.0703 
     89 H89        26.9028   26.7452    3.6321 H         1 UNK         0.3081 
     90 H90        24.5768   24.5507    2.9523 H         1 UNK         0.0719 
     91 H91        25.3883   27.4357    2.2438 H         1 UNK         0.0809 
     92 H92        23.7437   26.8604    2.4716 H         1 UNK         0.0809 
     93 H93        24.8405   26.8836    3.8322 H         1 UNK         0.0809 
     94 H94        25.9504   25.0932    0.4536 H         1 UNK         0.2990 
     95 H95        24.0554   23.4056   -1.3055 H         1 UNK         0.0690 
     96 H96        22.7832   24.7878   -2.9734 H         1 UNK         0.0788 
     97 H97        22.5398   26.0281   -1.7432 H         1 UNK         0.0788 
     98 H98        21.8446   24.4303   -1.5349 H         1 UNK         0.0788 
     99 H99        25.8676   24.3023   -2.1197 H         1 UNK         0.2993 
    100 H100       26.8831   26.5112   -3.6204 H         1 UNK         0.0949 
    101 H101       26.9320   28.7357   -2.5960 H         1 UNK         0.0767 
    102 H102       27.5721   28.1024   -1.0908 H         1 UNK         0.0767 
    103 H103       28.5614   28.0833   -2.5515 H         1 UNK         0.0767 
    104 H104       28.2704   24.9158   -2.9389 H         1 UNK         0.3013 
    105 H105       28.8857   26.4518    1.4707 H         1 UNK         0.3121 
    106 H106       29.7832   27.9250    0.1397 H         1 UNK         0.0774 
    107 H107       31.9940   27.5363    1.3209 H         1 UNK         0.0815 
    108 H108       31.6533   28.9231    2.3534 H         1 UNK         0.0815 
    109 H109       31.8547   29.1353    0.6223 H         1 UNK         0.0815 
    110 H110       30.4754   30.6044    0.3337 H         1 UNK         0.2987 
    111 H111       28.4529   32.0616    1.8150 H         1 UNK         0.0949 
    112 H112       27.1766   31.4318   -0.2627 H         1 UNK         0.0806 
    113 H113       28.4804   32.0614   -1.2680 H         1 UNK         0.0806 
    114 H114       27.5371   33.1510   -0.2591 H         1 UNK         0.0806 
    115 H115       29.0371   34.2310    1.9491 H         1 UNK         0.3010 
    116 H116       30.2878   36.0046    2.1965 H         1 UNK         0.0829 
    117 H117       30.3577   36.2019   -0.2710 H         1 UNK         0.0813 
    118 H118       31.8539   36.7767    0.4460 H         1 UNK         0.0813 
    119 H119       31.8112   35.2086   -0.3405 H         1 UNK         0.0813 
    120 H120       32.5134   33.3654    1.2667 H         1 UNK         0.3038 
    121 H121       34.5167   34.1529    3.3049 H         1 UNK         0.0769 
    122 H122       34.4726   31.8634    1.2596 H         1 UNK         0.0811 
    123 H123       35.8163   32.2583    2.3231 H         1 UNK         0.0811 
    124 H124       35.3274   33.3946    1.0752 H         1 UNK         0.0811 
    125 H125       34.5838   33.2227    5.2827 H         1 UNK         0.3204 
    126 H126       32.7062   31.0442    6.0208 H         1 UNK         0.0748 
    127 H127       32.7631   33.0430    7.4776 H         1 UNK         0.0771 
    128 H128       33.4063   31.6538    8.3380 H         1 UNK         0.0771 
    129 H129       34.5021   32.8756    7.7068 H         1 UNK         0.0771 
    130 H130       33.7668   29.3678    4.8151 H         1 UNK         0.2980 
    131 H131       36.5400   28.7642    5.1856 H         1 UNK         0.0545 
    132 H132       34.8097   26.7942    8.2386 H         1 UNK         0.3459 
    133 H133       33.9589   28.0529    7.3784 H         1 UNK         0.3459 
    134 H134       35.4619   28.2238    3.0875 H         1 UNK         0.0616 
    135 H135       36.1326   26.7874    3.7917 H         1 UNK         0.0616 
    136 H136       34.6046   24.9213    5.0679 H         1 UNK         0.0634 
    137 H137       34.8762   24.6758    3.3579 H         1 UNK         0.0634 
@<TRIPOS>BOND
     1    1    2 1    
     2    1   72 1    
     3    1   73 1    
     4    1   74 1    
     5    2    3 2    
     6    2    4 am   BACKBONE|DICT|INTERRES
     7    4    5 1    
     8    4   75 1    
     9    5    6 1    
    10    5   35 1    
    11    5   76 1    
    12    6    7 1    
    13    6   77 1    
    14    6   78 1    
    15    7    8 1    
    16    8    9 1    
    17    8   79 1    
    18    8   80 1    
    19    9   10 ar   
    20    9   14 ar   
    21   10   11 ar   
    22   10   81 1    
    23   11   12 ar   
    24   11   71 1    
    25   12   13 ar   
    26   12   82 1    
    27   13   14 ar   
    28   13   15 1    
    29   14   83 1    
    30   15   16 1    
    31   15   84 1    
    32   15   85 1    
    33   16   17 1    
    34   17   18 1    
    35   17   86 1    
    36   17   87 1    
    37   18   19 1    
    38   18   37 1    
    39   18   88 1    
    40   19   20 am   BACKBONE|DICT|INTERRES
    41   19   89 1    
    42   20   21 2    
    43   20   22 1    
    44   22   23 1    
    45   22   24 1    
    46   22   90 1    
    47   23   91 1    
    48   23   92 1    
    49   23   93 1    
    50   24   25 am   BACKBONE|DICT|INTERRES
    51   24   94 1    
    52   25   26 2    
    53   25   27 1    
    54   27   28 1    
    55   27   29 1    
    56   27   95 1    
    57   28   96 1    
    58   28   97 1    
    59   28   98 1    
    60   29   30 am   BACKBONE|DICT|INTERRES
    61   29   99 1    
    62   30   31 2    
    63   30   32 1    
    64   32   33 1    
    65   32   34 1    
    66   32  100 1    
    67   33  101 1    
    68   33  102 1    
    69   33  103 1    
    70   34   35 am   BACKBONE|DICT|INTERRES
    71   34  104 1    
    72   35   36 2    
    73   37   38 2    
    74   37   39 am   BACKBONE|DICT|INTERRES
    75   39   40 1    
    76   39  105 1    
    77   40   41 1    
    78   40   42 1    
    79   40  106 1    
    80   41  107 1    
    81   41  108 1    
    82   41  109 1    
    83   42   43 2    
    84   42   44 am   BACKBONE|DICT|INTERRES
    85   44   45 1    
    86   44  110 1    
    87   45   46 1    
    88   45   47 1    
    89   45  111 1    
    90   46  112 1    
    91   46  113 1    
    92   46  114 1    
    93   47   48 2    
    94   47   49 am   BACKBONE|DICT|INTERRES
    95   49   50 1    
    96   49  115 1    
    97   50   51 1    
    98   50   52 1    
    99   50  116 1    
   100   51  117 1    
   101   51  118 1    
   102   51  119 1    
   103   52   53 2    
   104   52   54 am   BACKBONE|DICT|INTERRES
   105   54   55 1    
   106   54  120 1    
   107   55   56 1    
   108   55   57 1    
   109   55  121 1    
   110   56  122 1    
   111   56  123 1    
   112   56  124 1    
   113   57   58 2    
   114   57   59 am   BACKBONE|DICT|INTERRES
   115   59   60 1    
   116   59  125 1    
   117   60   61 1    
   118   60   62 1    
   119   60  126 1    
   120   61  127 1    
   121   61  128 1    
   122   61  129 1    
   123   62   63 2    
   124   62   64 am   BACKBONE|DICT|INTERRES
   125   64   65 1    
   126   64  130 1    
   127   65   66 1    
   128   65   69 1    
   129   65  131 1    
   130   66   67 am   BACKBONE|DICT|INTERRES
   131   66   68 2    
   132   67  132 1    
   133   67  133 1    
   134   69   70 1    
   135   69  134 1    
   136   69  135 1    
   137   70   71 1    
   138   71  136 1    
   139   71  137 1    
@<TRIPOS>SUBSTRUCTURE
     1 UNK         1 GROUP             0       ****    0 ROOT    
