@<TRIPOS>MOLECULE
3R136
137   139    1
SMALL
USER_CHARGES


@<TRIPOS>ATOM
      1 CA         29.0747   19.1074    1.6508 C.3       0 UNK        -0.1979 
      2 C          29.6341   19.6970    0.3645 C.2       0 UNK         0.4864 
      3 O          30.6068   19.1710   -0.1784 O.2       0 UNK        -0.5359 
      4 N          29.0298   20.7843   -0.1227 N.am      1 UNK        -0.4318 
      5 CA         29.4013   21.4925   -1.3459 C.3       1 UNK         0.0824 
      6 C6         30.6568   22.3952   -1.1716 C.3       12 UNK        -0.0944 
      7 S7         30.4855   23.7158    0.0806 S.3       12 UNK        -0.2672 
      8 C8         31.3719   22.9767    1.4869 C.3       12 UNK         0.0333 
      9 C9         31.2297   23.8298    2.7370 C.ar      12 UNK        -0.0807 
     10 C10        32.2649   24.6778    3.1387 C.ar      12 UNK        -0.0894 
     11 C11        32.1313   25.4652    4.2864 C.ar      12 UNK        -0.0804 
     12 C12        30.9525   25.3996    5.0370 C.ar      12 UNK        -0.0824 
     13 C13        29.9158   24.5441    4.6507 C.ar      12 UNK        -0.0762 
     14 C14        30.0607   23.7631    3.5000 C.ar      12 UNK        -0.0782 
     15 C15        28.6469   24.4327    5.4820 C.3       12 UNK         0.0230 
     16 S16        27.2491   25.3052    4.7080 S.3       12 UNK        -0.2608 
     17 C17        27.4586   27.0143    5.3161 C.3       12 UNK        -0.0989 
     18 CA         27.9181   28.0148    4.2253 C.3       5 UNK         0.0716 
     19 N          27.0707   27.9677    3.0305 N.am      5 UNK        -0.4135 
     20 C          27.2990   28.6382    1.8955 C.2       4 UNK         0.5031 
     21 O          28.2602   29.3918    1.7149 O.2       4 UNK        -0.5229 
     22 CA         26.2625   28.4632    0.7750 C.3       4 UNK         0.0329 
     23 CB         25.4366   29.7465    0.5976 C.3       4 UNK        -0.2001 
     24 N          26.9165   28.1365   -0.4911 N.am      4 UNK        -0.4303 
     25 C          27.4645   26.9484   -0.7718 C.2       3 UNK         0.5044 
     26 O          27.4193   25.9753   -0.0166 O.2       3 UNK        -0.5152 
     27 CA         28.2112   26.8507   -2.1126 C.3       3 UNK         0.0319 
     28 CB         29.6872   27.2380   -1.9362 C.3       3 UNK        -0.2001 
     29 N          28.1440   25.5020   -2.6744 N.am      3 UNK        -0.4354 
     30 C          27.0596   24.9669   -3.2515 C.2       2 UNK         0.4964 
     31 O          26.0049   25.5802   -3.4229 O.2       2 UNK        -0.5047 
     32 CA         27.1681   23.5130   -3.7500 C.3       2 UNK         0.0288 
     33 CB         27.3836   23.4837   -5.2728 C.3       2 UNK        -0.2113 
     34 N          28.2381   22.7464   -3.1022 N.am      2 UNK        -0.4145 
     35 C          28.1638   22.2530   -1.8583 C.2       1 UNK         0.5006 
     36 O          27.1695   22.3691   -1.1342 O.2       1 UNK        -0.5103 
     37 C          27.9452   29.4426    4.8059 C.2       5 UNK         0.5055 
     38 O          26.8793   30.0262    5.0193 O.2       5 UNK        -0.5220 
     39 N          29.1501   29.9795    5.0298 N.am      6 UNK        -0.4450 
     40 CA         29.4951   31.3169    5.5324 C.3       6 UNK         0.0367 
     41 CB         28.8989   31.5773    6.9290 C.3       6 UNK        -0.1929 
     42 C          29.1699   32.4660    4.5614 C.2       6 UNK         0.5070 
     43 O          29.9742   33.3895    4.4389 O.2       6 UNK        -0.5237 
     44 N          28.0155   32.3975    3.8878 N.am      7 UNK        -0.4739 
     45 CA         27.5481   33.3816    2.9101 C.3       7 UNK         0.0276 
     46 CB         26.0628   33.1315    2.6091 C.3       7 UNK        -0.1927 
     47 C          28.3753   33.3975    1.6130 C.2       7 UNK         0.5013 
     48 O          28.5335   34.4674    1.0232 O.2       7 UNK        -0.5193 
     49 N          28.8895   32.2314    1.2005 N.am      8 UNK        -0.4253 
     50 CA         29.7771   32.0744    0.0487 C.3       8 UNK         0.0242 
     51 CB         29.0371   31.3574   -1.0940 C.3       8 UNK        -0.2000 
     52 C          31.0473   31.3204    0.4581 C.2       8 UNK         0.4948 
     53 O          32.1466   31.8367    0.2534 O.2       8 UNK        -0.5275 
     54 N          30.8820   30.1258    1.0391 N.am      9 UNK        -0.4246 
     55 CA         31.9713   29.2876    1.5294 C.3       9 UNK         0.0261 
     56 CB         31.6611   27.8152    1.2113 C.3       9 UNK        -0.1959 
     57 C          32.1268   29.5096    3.0355 C.2       9 UNK         0.5033 
     58 O          31.3526   28.9466    3.8103 O.2       9 UNK        -0.5390 
     59 N          33.1062   30.3294    3.4279 N.am      10 UNK        -0.4215 
     60 CA         33.4972   30.5368    4.8218 C.3       10 UNK         0.0240 
     61 CB         33.7624   32.0320    5.0607 C.3       10 UNK        -0.1982 
     62 C          34.7520   29.7024    5.1077 C.2       10 UNK         0.4970 
     63 O          35.6969   29.7462    4.3162 O.2       10 UNK        -0.4916 
     64 N          34.7360   28.9599    6.2189 N.am      11 UNK        -0.4279 
     65 CA         35.8076   28.0386    6.6296 C.3       11 UNK         0.1003 
     66 C          35.8869   27.8131    8.1675 C.2       11 UNK         0.5709 
     67 N          35.2186   28.6142    8.9908 N.am      11 UNK        -0.7358 
     68 O          36.5859   26.9149    8.6310 O.2       11 UNK        -0.4999 
     69 C69        35.8258   26.7272    5.7883 C.3       12 UNK        -0.0954 
     70 S70        34.3409   25.6725    5.9514 S.3       12 UNK        -0.2268 
     71 C71        33.2519   26.4063    4.6951 C.3       12 UNK         0.0203 
     72 H72        28.2212   19.6751    2.0214 H         1 UNK         0.0888 
     73 H73        28.7525   18.0799    1.4842 H         1 UNK         0.0888 
     74 H74        29.8409   19.1040    2.4256 H         1 UNK         0.0888 
     75 H75        28.2001   21.1638    0.3182 H         1 UNK         0.3017 
     76 H76        29.6277   20.7395   -2.1043 H         1 UNK         0.0873 
     77 H77        31.5191   21.7760   -0.9197 H         1 UNK         0.0745 
     78 H78        30.9180   22.8668   -2.1201 H         1 UNK         0.0745 
     79 H79        30.9818   21.9784    1.6856 H         1 UNK         0.0705 
     80 H80        32.4235   22.8510    1.2246 H         1 UNK         0.0705 
     81 H81        33.1726   24.7317    2.5532 H         1 UNK         0.1334 
     82 H82        30.8480   26.0103    5.9233 H         1 UNK         0.1417 
     83 H83        29.2575   23.1068    3.1927 H         1 UNK         0.1562 
     84 H84        28.8070   24.7970    6.4978 H         1 UNK         0.0748 
     85 H85        28.3818   23.3792    5.5831 H         1 UNK         0.0748 
     86 H86        28.1622   27.0211    6.1505 H         1 UNK         0.0940 
     87 H87        26.4991   27.3236    5.7364 H         1 UNK         0.0940 
     88 H88        28.9276   27.7379    3.9130 H         1 UNK         0.0703 
     89 H89        26.2587   27.3724    3.0958 H         1 UNK         0.3081 
     90 H90        25.5824   27.6487    1.0344 H         1 UNK         0.0719 
     91 H91        26.0634   30.5959    0.3220 H         1 UNK         0.0809 
     92 H92        24.6772   29.6261   -0.1752 H         1 UNK         0.0809 
     93 H93        24.9173   30.0048    1.5214 H         1 UNK         0.0809 
     94 H94        27.0150   28.8899   -1.1548 H         1 UNK         0.2990 
     95 H95        27.7526   27.5440   -2.8212 H         1 UNK         0.0690 
     96 H96        30.2099   27.2581   -2.8926 H         1 UNK         0.0788 
     97 H97        30.2050   26.5320   -1.2863 H         1 UNK         0.0788 
     98 H98        29.7874   28.2287   -1.4911 H         1 UNK         0.0788 
     99 H99        28.9479   24.9116   -2.5239 H         1 UNK         0.2993 
    100 H100       26.2143   23.0266   -3.5327 H         1 UNK         0.0949 
    101 H101       26.5858   24.0187   -5.7903 H         1 UNK         0.0767 
    102 H102       28.3270   23.9517   -5.5571 H         1 UNK         0.0767 
    103 H103       27.3853   22.4623   -5.6541 H         1 UNK         0.0767 
    104 H104       29.0782   22.5961   -3.6428 H         1 UNK         0.3013 
    105 H105       29.9588   29.4487    4.6953 H         1 UNK         0.3121 
    106 H106       30.5798   31.3105    5.6417 H         1 UNK         0.0774 
    107 H107       29.2607   32.5236    7.3332 H         1 UNK         0.0815 
    108 H108       27.8103   31.6328    6.9069 H         1 UNK         0.0815 
    109 H109       29.1816   30.7948    7.6329 H         1 UNK         0.0815 
    110 H110       27.4066   31.6094    4.0923 H         1 UNK         0.2987 
    111 H111       27.6401   34.3714    3.3630 H         1 UNK         0.0949 
    112 H112       25.8967   32.1302    2.2148 H         1 UNK         0.0806 
    113 H113       25.4532   33.2424    3.5060 H         1 UNK         0.0806 
    114 H114       25.6862   33.8419    1.8717 H         1 UNK         0.0806 
    115 H115       28.6917   31.3917    1.7346 H         1 UNK         0.3010 
    116 H116       30.0956   33.0518   -0.3202 H         1 UNK         0.0829 
    117 H117       28.1795   31.9389   -1.4324 H         1 UNK         0.0813 
    118 H118       29.6924   31.2130   -1.9539 H         1 UNK         0.0813 
    119 H119       28.6752   30.3767   -0.7896 H         1 UNK         0.0813 
    120 H120       29.9382   29.7903    1.2303 H         1 UNK         0.3038 
    121 H121       32.9106   29.5422    1.0336 H         1 UNK         0.0769 
    122 H122       31.6709   27.6400    0.1374 H         1 UNK         0.0811 
    123 H123       30.6893   27.5043    1.5990 H         1 UNK         0.0811 
    124 H124       32.4123   27.1567    1.6470 H         1 UNK         0.0811 
    125 H125       33.7171   30.7320    2.7302 H         1 UNK         0.3204 
    126 H126       32.6981   30.2208    5.4951 H         1 UNK         0.0748 
    127 H127       32.8720   32.6277    4.8564 H         1 UNK         0.0771 
    128 H128       34.0461   32.2179    6.0974 H         1 UNK         0.0771 
    129 H129       34.5680   32.4081    4.4286 H         1 UNK         0.0771 
    130 H130       33.9192   28.9630    6.8123 H         1 UNK         0.2980 
    131 H131       36.7481   28.5495    6.4155 H         1 UNK         0.0545 
    132 H132       35.2898   28.4542    9.9836 H         1 UNK         0.3459 
    133 H133       34.7019   29.4083    8.6514 H         1 UNK         0.3459 
    134 H134       35.9764   26.9641    4.7344 H         1 UNK         0.0616 
    135 H135       36.6911   26.1218    6.0630 H         1 UNK         0.0616 
    136 H136       33.8312   26.7008    3.8189 H         1 UNK         0.0634 
    137 H137       32.8237   27.3179    5.1077 H         1 UNK         0.0634 
@<TRIPOS>BOND
     1    1    2 1    
     2    1   72 1    
     3    1   73 1    
     4    1   74 1    
     5    2    3 2    
     6    2    4 am   BACKBONE|DICT|INTERRES
     7    4    5 1    
     8    4   75 1    
     9    5    6 1    
    10    5   35 1    
    11    5   76 1    
    12    6    7 1    
    13    6   77 1    
    14    6   78 1    
    15    7    8 1    
    16    8    9 1    
    17    8   79 1    
    18    8   80 1    
    19    9   10 ar   
    20    9   14 ar   
    21   10   11 ar   
    22   10   81 1    
    23   11   12 ar   
    24   11   71 1    
    25   12   13 ar   
    26   12   82 1    
    27   13   14 ar   
    28   13   15 1    
    29   14   83 1    
    30   15   16 1    
    31   15   84 1    
    32   15   85 1    
    33   16   17 1    
    34   17   18 1    
    35   17   86 1    
    36   17   87 1    
    37   18   19 1    
    38   18   37 1    
    39   18   88 1    
    40   19   20 am   BACKBONE|DICT|INTERRES
    41   19   89 1    
    42   20   21 2    
    43   20   22 1    
    44   22   23 1    
    45   22   24 1    
    46   22   90 1    
    47   23   91 1    
    48   23   92 1    
    49   23   93 1    
    50   24   25 am   BACKBONE|DICT|INTERRES
    51   24   94 1    
    52   25   26 2    
    53   25   27 1    
    54   27   28 1    
    55   27   29 1    
    56   27   95 1    
    57   28   96 1    
    58   28   97 1    
    59   28   98 1    
    60   29   30 am   BACKBONE|DICT|INTERRES
    61   29   99 1    
    62   30   31 2    
    63   30   32 1    
    64   32   33 1    
    65   32   34 1    
    66   32  100 1    
    67   33  101 1    
    68   33  102 1    
    69   33  103 1    
    70   34   35 am   BACKBONE|DICT|INTERRES
    71   34  104 1    
    72   35   36 2    
    73   37   38 2    
    74   37   39 am   BACKBONE|DICT|INTERRES
    75   39   40 1    
    76   39  105 1    
    77   40   41 1    
    78   40   42 1    
    79   40  106 1    
    80   41  107 1    
    81   41  108 1    
    82   41  109 1    
    83   42   43 2    
    84   42   44 am   BACKBONE|DICT|INTERRES
    85   44   45 1    
    86   44  110 1    
    87   45   46 1    
    88   45   47 1    
    89   45  111 1    
    90   46  112 1    
    91   46  113 1    
    92   46  114 1    
    93   47   48 2    
    94   47   49 am   BACKBONE|DICT|INTERRES
    95   49   50 1    
    96   49  115 1    
    97   50   51 1    
    98   50   52 1    
    99   50  116 1    
   100   51  117 1    
   101   51  118 1    
   102   51  119 1    
   103   52   53 2    
   104   52   54 am   BACKBONE|DICT|INTERRES
   105   54   55 1    
   106   54  120 1    
   107   55   56 1    
   108   55   57 1    
   109   55  121 1    
   110   56  122 1    
   111   56  123 1    
   112   56  124 1    
   113   57   58 2    
   114   57   59 am   BACKBONE|DICT|INTERRES
   115   59   60 1    
   116   59  125 1    
   117   60   61 1    
   118   60   62 1    
   119   60  126 1    
   120   61  127 1    
   121   61  128 1    
   122   61  129 1    
   123   62   63 2    
   124   62   64 am   BACKBONE|DICT|INTERRES
   125   64   65 1    
   126   64  130 1    
   127   65   66 1    
   128   65   69 1    
   129   65  131 1    
   130   66   67 am   BACKBONE|DICT|INTERRES
   131   66   68 2    
   132   67  132 1    
   133   67  133 1    
   134   69   70 1    
   135   69  134 1    
   136   69  135 1    
   137   70   71 1    
   138   71  136 1    
   139   71  137 1    
@<TRIPOS>SUBSTRUCTURE
     1 UNK         1 GROUP             0       ****    0 ROOT    
