@<TRIPOS>MOLECULE
3R136
137   139    1
SMALL
USER_CHARGES


@<TRIPOS>ATOM
      1 CA         33.7072   22.3975   -2.3776 C.3       0 UNK        -0.1979 
      2 C          32.8053   23.1169   -1.3852 C.2       0 UNK         0.4864 
      3 O          33.1976   24.1571   -0.8549 O.2       0 UNK        -0.5359 
      4 N          31.6125   22.5629   -1.1358 N.am      1 UNK        -0.4318 
      5 CA         30.5871   23.1178   -0.2498 C.3       1 UNK         0.0824 
      6 C6         30.1790   22.1264    0.8727 C.3       12 UNK        -0.0944 
      7 S7         31.5450   21.7792    2.0296 S.3       12 UNK        -0.2672 
      8 C8         30.6372   21.2239    3.5082 C.3       12 UNK         0.0333 
      9 C9         30.0857   22.3921    4.3143 C.ar      12 UNK        -0.0807 
     10 C10        30.8895   23.0300    5.2626 C.ar      12 UNK        -0.0894 
     11 C11        30.3937   24.1007    6.0139 C.ar      12 UNK        -0.0804 
     12 C12        29.0770   24.5287    5.8165 C.ar      12 UNK        -0.0824 
     13 C13        28.2620   23.8946    4.8730 C.ar      12 UNK        -0.0762 
     14 C14        28.7694   22.8240    4.1315 C.ar      12 UNK        -0.0782 
     15 C15        26.8276   24.3475    4.6527 C.3       12 UNK         0.0230 
     16 S16        26.7059   25.5159    3.2627 S.3       12 UNK        -0.2608 
     17 C17        27.1565   27.0937    4.0567 C.3       12 UNK        -0.0989 
     18 CA         28.5898   27.5853    3.7235 C.3       5 UNK         0.0716 
     19 N          28.7626   27.9018    2.3100 N.am      5 UNK        -0.4135 
     20 C          29.4310   27.1584    1.4241 C.2       4 UNK         0.5031 
     21 O          29.9361   26.0620    1.6763 O.2       4 UNK        -0.5229 
     22 CA         29.5334   27.7314    0.0030 C.3       4 UNK         0.0329 
     23 CB         30.9034   27.4519   -0.6410 C.3       4 UNK        -0.2001 
     24 N          28.4779   27.1724   -0.8389 N.am      4 UNK        -0.4303 
     25 C          27.2139   27.6204   -0.8605 C.2       3 UNK         0.5044 
     26 O          26.8163   28.5669   -0.1801 O.2       3 UNK        -0.5152 
     27 CA         26.2217   26.9251   -1.8123 C.3       3 UNK         0.0319 
     28 CB         26.0806   27.7260   -3.1171 C.3       3 UNK        -0.2001 
     29 N          26.5966   25.5479   -2.1359 N.am      3 UNK        -0.4354 
     30 C          26.4481   24.5082   -1.3053 C.2       2 UNK         0.4964 
     31 O          25.9074   24.5832   -0.2025 O.2       2 UNK        -0.5047 
     32 CA         27.0123   23.1521   -1.7655 C.3       2 UNK         0.0288 
     33 CB         27.1545   23.0103   -3.2994 C.3       2 UNK        -0.2113 
     34 N          28.2777   22.8562   -1.0838 N.am      2 UNK        -0.4145 
     35 C          29.4101   23.5777   -1.1314 C.2       1 UNK         0.5006 
     36 O          29.5505   24.5745   -1.8437 O.2       1 UNK        -0.5103 
     37 C          28.8841   28.8697    4.5103 C.2       5 UNK         0.5055 
     38 O          28.1506   29.8457    4.3376 O.2       5 UNK        -0.5220 
     39 N          29.8992   28.8288    5.3861 N.am      6 UNK        -0.4450 
     40 CA         30.2507   29.8277    6.4050 C.3       6 UNK         0.0367 
     41 CB         29.3446   29.6364    7.6406 C.3       6 UNK        -0.1929 
     42 C          30.2774   31.2812    5.8880 C.2       6 UNK         0.5070 
     43 O          31.2542   31.6834    5.2575 O.2       6 UNK        -0.5237 
     44 N          29.2102   32.0450    6.1589 N.am      7 UNK        -0.4739 
     45 CA         29.0409   33.4372    5.7356 C.3       7 UNK         0.0276 
     46 CB         27.7904   34.0215    6.4113 C.3       7 UNK        -0.1927 
     47 C          28.9640   33.6251    4.2095 C.2       7 UNK         0.5013 
     48 O          29.3285   34.6965    3.7221 O.2       7 UNK        -0.5193 
     49 N          28.5275   32.5942    3.4715 N.am      8 UNK        -0.4253 
     50 CA         28.4483   32.5883    2.0091 C.3       8 UNK         0.0242 
     51 CB         27.3492   31.6062    1.5619 C.3       8 UNK        -0.2000 
     52 C          29.8193   32.2876    1.3724 C.2       8 UNK         0.4948 
     53 O          29.9530   31.3099    0.6371 O.2       8 UNK        -0.5275 
     54 N          30.8019   33.1523    1.6652 N.am      9 UNK        -0.4246 
     55 CA         32.1820   33.1489    1.1654 C.3       9 UNK         0.0261 
     56 CB         32.2108   33.4430   -0.3508 C.3       9 UNK        -0.1959 
     57 C          32.9748   31.8827    1.5510 C.2       9 UNK         0.5033 
     58 O          33.6080   31.2726    0.6861 O.2       9 UNK        -0.5390 
     59 N          32.9497   31.5489    2.8511 N.am      10 UNK        -0.4215 
     60 CA         33.5948   30.4071    3.5147 C.3       10 UNK         0.0240 
     61 CB         35.1057   30.3282    3.2004 C.3       10 UNK        -0.1982 
     62 C          32.8755   29.0745    3.2453 C.2       10 UNK         0.4970 
     63 O          31.9937   28.9900    2.3915 O.2       10 UNK        -0.4916 
     64 N          33.2591   28.0524    4.0159 N.am      11 UNK        -0.4279 
     65 CA         32.8122   26.6657    3.8481 C.3       11 UNK         0.1003 
     66 C          33.4977   26.0144    2.6191 C.2       11 UNK         0.5709 
     67 N          32.7202   25.5135    1.6737 N.am      11 UNK        -0.7358 
     68 O          34.7228   25.9404    2.5412 O.2       11 UNK        -0.4999 
     69 C69        33.0695   25.8498    5.1386 C.3       12 UNK        -0.0954 
     70 S70        31.9495   26.3650    6.4839 S.3       12 UNK        -0.2268 
     71 C71        31.2734   24.7748    7.0582 C.3       12 UNK         0.0203 
     72 H72        33.2475   21.4881   -2.7642 H         1 UNK         0.0888 
     73 H73        33.9308   23.0499   -3.2213 H         1 UNK         0.0888 
     74 H74        34.6473   22.1247   -1.8989 H         1 UNK         0.0888 
     75 H75        31.3501   21.7204   -1.6272 H         1 UNK         0.3017 
     76 H76        30.9555   24.0220    0.2349 H         1 UNK         0.0873 
     77 H77        29.3502   22.5454    1.4430 H         1 UNK         0.0745 
     78 H78        29.8364   21.1756    0.4607 H         1 UNK         0.0745 
     79 H79        29.8357   20.5442    3.2145 H         1 UNK         0.0705 
     80 H80        31.3142   20.6390    4.1326 H         1 UNK         0.0705 
     81 H81        31.9047   22.6893    5.4141 H         1 UNK         0.1334 
     82 H82        28.6885   25.3531    6.3985 H         1 UNK         0.1417 
     83 H83        28.1349   22.3299    3.4088 H         1 UNK         0.1562 
     84 H84        26.4131   24.7883    5.5605 H         1 UNK         0.0748 
     85 H85        26.2026   23.4809    4.4312 H         1 UNK         0.0748 
     86 H86        26.4196   27.8350    3.7400 H         1 UNK         0.0940 
     87 H87        27.0283   26.9976    5.1364 H         1 UNK         0.0940 
     88 H88        29.3047   26.8175    4.0262 H         1 UNK         0.0703 
     89 H89        28.3819   28.7903    2.0149 H         1 UNK         0.3081 
     90 H90        29.4144   28.8152    0.0529 H         1 UNK         0.0719 
     91 H91        31.7052   27.8913   -0.0467 H         1 UNK         0.0809 
     92 H92        31.1120   26.3854   -0.7234 H         1 UNK         0.0809 
     93 H93        30.9676   27.8837   -1.6395 H         1 UNK         0.0809 
     94 H94        28.7224   26.3442   -1.3728 H         1 UNK         0.2990 
     95 H95        25.2483   26.9116   -1.3167 H         1 UNK         0.0690 
     96 H96        25.3275   27.2882   -3.7726 H         1 UNK         0.0788 
     97 H97        27.0215   27.7715   -3.6672 H         1 UNK         0.0788 
     98 H98        25.7729   28.7526   -2.9127 H         1 UNK         0.0788 
     99 H99        27.0780   25.3955   -3.0107 H         1 UNK         0.2993 
    100 H100       26.2955   22.3985   -1.4346 H         1 UNK         0.0949 
    101 H101       27.9039   23.6813   -3.7197 H         1 UNK         0.0767 
    102 H102       27.4419   21.9938   -3.5688 H         1 UNK         0.0767 
    103 H103       26.2078   23.2167   -3.8007 H         1 UNK         0.0767 
    104 H104       28.2498   22.0643   -0.4576 H         1 UNK         0.3013 
    105 H105       30.4640   27.9899    5.4155 H         1 UNK         0.3121 
    106 H106       31.2732   29.6033    6.7133 H         1 UNK         0.0774 
    107 H107       28.2859   29.7287    7.3956 H         1 UNK         0.0815 
    108 H108       29.4923   28.6499    8.0805 H         1 UNK         0.0815 
    109 H109       29.5738   30.3675    8.4174 H         1 UNK         0.0815 
    110 H110       28.4370   31.6225    6.6521 H         1 UNK         0.2987 
    111 H111       29.9120   33.9966    6.0839 H         1 UNK         0.0949 
    112 H112       27.8698   33.9815    7.4978 H         1 UNK         0.0806 
    113 H113       27.6517   35.0685    6.1372 H         1 UNK         0.0806 
    114 H114       26.8862   33.4859    6.1190 H         1 UNK         0.0806 
    115 H115       28.3174   31.7135    3.9371 H         1 UNK         0.3010 
    116 H116       28.1492   33.5818    1.6675 H         1 UNK         0.0829 
    117 H117       27.5782   30.5809    1.8480 H         1 UNK         0.0813 
    118 H118       26.3836   31.8658    1.9956 H         1 UNK         0.0813 
    119 H119       27.2310   31.6184    0.4775 H         1 UNK         0.0813 
    120 H120       30.5635   33.9038    2.3058 H         1 UNK         0.3038 
    121 H121       32.6849   33.9792    1.6637 H         1 UNK         0.0769 
    122 H122       31.7566   32.6369   -0.9280 H         1 UNK         0.0811 
    123 H123       31.6805   34.3655   -0.5871 H         1 UNK         0.0811 
    124 H124       33.2352   33.5590   -0.7066 H         1 UNK         0.0811 
    125 H125       32.3249   32.0644    3.4620 H         1 UNK         0.3204 
    126 H126       33.5005   30.6010    4.5836 H         1 UNK         0.0748 
    127 H127       35.2940   29.9881    2.1816 H         1 UNK         0.0771 
    128 H128       35.5892   31.2969    3.3264 H         1 UNK         0.0771 
    129 H129       35.6113   29.6292    3.8672 H         1 UNK         0.0771 
    130 H130       33.9975   28.1945    4.6882 H         1 UNK         0.2980 
    131 H131       31.7355   26.6744    3.6687 H         1 UNK         0.0545 
    132 H132       33.1232   25.0670    0.8559 H         1 UNK         0.3459 
    133 H133       31.7095   25.6195    1.7332 H         1 UNK         0.3459 
    134 H134       34.1009   25.9668    5.4756 H         1 UNK         0.0616 
    135 H135       32.9411   24.7853    4.9465 H         1 UNK         0.0616 
    136 H136       30.6896   24.9505    7.9628 H         1 UNK         0.0634 
    137 H137       32.0965   24.1210    7.3508 H         1 UNK         0.0634 
@<TRIPOS>BOND
     1    1    2 1    
     2    1   72 1    
     3    1   73 1    
     4    1   74 1    
     5    2    3 2    
     6    2    4 am   BACKBONE|DICT|INTERRES
     7    4    5 1    
     8    4   75 1    
     9    5    6 1    
    10    5   35 1    
    11    5   76 1    
    12    6    7 1    
    13    6   77 1    
    14    6   78 1    
    15    7    8 1    
    16    8    9 1    
    17    8   79 1    
    18    8   80 1    
    19    9   10 ar   
    20    9   14 ar   
    21   10   11 ar   
    22   10   81 1    
    23   11   12 ar   
    24   11   71 1    
    25   12   13 ar   
    26   12   82 1    
    27   13   14 ar   
    28   13   15 1    
    29   14   83 1    
    30   15   16 1    
    31   15   84 1    
    32   15   85 1    
    33   16   17 1    
    34   17   18 1    
    35   17   86 1    
    36   17   87 1    
    37   18   19 1    
    38   18   37 1    
    39   18   88 1    
    40   19   20 am   BACKBONE|DICT|INTERRES
    41   19   89 1    
    42   20   21 2    
    43   20   22 1    
    44   22   23 1    
    45   22   24 1    
    46   22   90 1    
    47   23   91 1    
    48   23   92 1    
    49   23   93 1    
    50   24   25 am   BACKBONE|DICT|INTERRES
    51   24   94 1    
    52   25   26 2    
    53   25   27 1    
    54   27   28 1    
    55   27   29 1    
    56   27   95 1    
    57   28   96 1    
    58   28   97 1    
    59   28   98 1    
    60   29   30 am   BACKBONE|DICT|INTERRES
    61   29   99 1    
    62   30   31 2    
    63   30   32 1    
    64   32   33 1    
    65   32   34 1    
    66   32  100 1    
    67   33  101 1    
    68   33  102 1    
    69   33  103 1    
    70   34   35 am   BACKBONE|DICT|INTERRES
    71   34  104 1    
    72   35   36 2    
    73   37   38 2    
    74   37   39 am   BACKBONE|DICT|INTERRES
    75   39   40 1    
    76   39  105 1    
    77   40   41 1    
    78   40   42 1    
    79   40  106 1    
    80   41  107 1    
    81   41  108 1    
    82   41  109 1    
    83   42   43 2    
    84   42   44 am   BACKBONE|DICT|INTERRES
    85   44   45 1    
    86   44  110 1    
    87   45   46 1    
    88   45   47 1    
    89   45  111 1    
    90   46  112 1    
    91   46  113 1    
    92   46  114 1    
    93   47   48 2    
    94   47   49 am   BACKBONE|DICT|INTERRES
    95   49   50 1    
    96   49  115 1    
    97   50   51 1    
    98   50   52 1    
    99   50  116 1    
   100   51  117 1    
   101   51  118 1    
   102   51  119 1    
   103   52   53 2    
   104   52   54 am   BACKBONE|DICT|INTERRES
   105   54   55 1    
   106   54  120 1    
   107   55   56 1    
   108   55   57 1    
   109   55  121 1    
   110   56  122 1    
   111   56  123 1    
   112   56  124 1    
   113   57   58 2    
   114   57   59 am   BACKBONE|DICT|INTERRES
   115   59   60 1    
   116   59  125 1    
   117   60   61 1    
   118   60   62 1    
   119   60  126 1    
   120   61  127 1    
   121   61  128 1    
   122   61  129 1    
   123   62   63 2    
   124   62   64 am   BACKBONE|DICT|INTERRES
   125   64   65 1    
   126   64  130 1    
   127   65   66 1    
   128   65   69 1    
   129   65  131 1    
   130   66   67 am   BACKBONE|DICT|INTERRES
   131   66   68 2    
   132   67  132 1    
   133   67  133 1    
   134   69   70 1    
   135   69  134 1    
   136   69  135 1    
   137   70   71 1    
   138   71  136 1    
   139   71  137 1    
@<TRIPOS>SUBSTRUCTURE
     1 UNK         1 GROUP             0       ****    0 ROOT    
