@<TRIPOS>MOLECULE
3R136
137   139    1
SMALL
USER_CHARGES


@<TRIPOS>ATOM
      1 CA         26.1241   20.4873   -0.5983 C.3       0 UNK        -0.1979 
      2 C          27.2803   21.4568   -0.4001 C.2       0 UNK         0.4864 
      3 O          27.0423   22.6395   -0.1586 O.2       0 UNK        -0.5359 
      4 N          28.5213   20.9572   -0.4971 N.am      1 UNK        -0.4318 
      5 CA         29.7790   21.7090   -0.3837 C.3       1 UNK         0.0824 
      6 C6         29.9609   22.3694    1.0159 C.3       12 UNK        -0.0944 
      7 S7         31.7123   22.4508    1.5183 S.3       12 UNK        -0.2672 
      8 C8         31.6140   22.0573    3.2953 C.3       12 UNK         0.0333 
      9 C9         31.0633   23.2144    4.1203 C.ar      12 UNK        -0.0807 
     10 C10        31.7163   24.4502    4.1115 C.ar      12 UNK        -0.0894 
     11 C11        31.2446   25.5108    4.8881 C.ar      12 UNK        -0.0804 
     12 C12        30.1298   25.3200    5.7090 C.ar      12 UNK        -0.0824 
     13 C13        29.4529   24.0969    5.7133 C.ar      12 UNK        -0.0762 
     14 C14        29.9248   23.0467    4.9165 C.ar      12 UNK        -0.0782 
     15 C15        28.2201   23.9028    6.5861 C.3       12 UNK         0.0230 
     16 S16        26.6767   24.1367    5.6452 S.3       12 UNK        -0.2608 
     17 C17        26.4327   25.9490    5.7003 C.3       12 UNK        -0.0989 
     18 CA         27.0565   26.6896    4.4873 C.3       5 UNK         0.0716 
     19 N          26.6376   26.1593    3.1874 N.am      5 UNK        -0.4135 
     20 C          25.4321   26.2279    2.6122 C.2       4 UNK         0.5031 
     21 O          24.4516   26.7757    3.1200 O.2       4 UNK        -0.5229 
     22 CA         25.3152   25.5660    1.2226 C.3       4 UNK         0.0329 
     23 CB         23.8619   25.5147    0.7139 C.3       4 UNK        -0.2001 
     24 N          26.1524   26.1941    0.1919 N.am      4 UNK        -0.4303 
     25 C          27.4878   26.1275    0.1205 C.2       3 UNK         0.5044 
     26 O          28.2047   25.6334    0.9966 O.2       3 UNK        -0.5152 
     27 CA         28.1450   26.7005   -1.1394 C.3       3 UNK         0.0319 
     28 CB         28.4150   28.2098   -1.0153 C.3       3 UNK        -0.2001 
     29 N          29.3917   25.9690   -1.3104 N.am      3 UNK        -0.4354 
     30 C          30.0386   25.7355   -2.4553 C.2       2 UNK         0.4964 
     31 O          29.7495   26.2567   -3.5328 O.2       2 UNK        -0.5047 
     32 CA         31.1847   24.7097   -2.3852 C.3       2 UNK         0.0288 
     33 CB         32.5112   25.4001   -2.0310 C.3       2 UNK        -0.2113 
     34 N          30.9185   23.6379   -1.4174 N.am      2 UNK        -0.4145 
     35 C          29.9853   22.6862   -1.5696 C.2       1 UNK         0.5006 
     36 O          29.3291   22.5494   -2.6066 O.2       1 UNK        -0.5103 
     37 C          26.8799   28.2208    4.5396 C.2       5 UNK         0.5055 
     38 O          26.1370   28.7455    5.3727 O.2       5 UNK        -0.5220 
     39 N          27.5470   28.8926    3.5939 N.am      6 UNK        -0.4450 
     40 CA         27.5492   30.3400    3.3973 C.3       6 UNK         0.0367 
     41 CB         27.9462   30.6132    1.9331 C.3       6 UNK        -0.1929 
     42 C          28.4588   31.0772    4.4041 C.2       6 UNK         0.5070 
     43 O          28.8847   30.5089    5.4123 O.2       6 UNK        -0.5237 
     44 N          28.7291   32.3569    4.1203 N.am      7 UNK        -0.4739 
     45 CA         29.5716   33.2513    4.9149 C.3       7 UNK         0.0276 
     46 CB         29.3140   34.6998    4.4591 C.3       7 UNK        -0.1927 
     47 C          31.0672   32.8819    4.8441 C.2       7 UNK         0.5013 
     48 O          31.8219   33.5308    4.1156 O.2       7 UNK        -0.5193 
     49 N          31.4573   31.8510    5.6075 N.am      8 UNK        -0.4253 
     50 CA         32.8240   31.3918    5.8914 C.3       8 UNK         0.0242 
     51 CB         33.5216   32.3697    6.8626 C.3       8 UNK        -0.2000 
     52 C          33.6476   31.1132    4.6220 C.2       8 UNK         0.4948 
     53 O          33.5540   30.0191    4.0695 O.2       8 UNK        -0.5275 
     54 N          34.4145   32.1107    4.1587 N.am      9 UNK        -0.4246 
     55 CA         35.1925   32.0729    2.9171 C.3       9 UNK         0.0261 
     56 CB         35.9809   33.3839    2.7705 C.3       9 UNK        -0.1959 
     57 C          34.3423   31.8111    1.6599 C.2       9 UNK         0.5033 
     58 O          34.8518   31.2157    0.7098 O.2       9 UNK        -0.5390 
     59 N          33.0596   32.2054    1.6882 N.am      10 UNK        -0.4215 
     60 CA         32.0815   31.9459    0.6269 C.3       10 UNK         0.0240 
     61 CB         30.7878   32.7150    0.9323 C.3       10 UNK        -0.1982 
     62 C          31.7841   30.4513    0.3855 C.2       10 UNK         0.4970 
     63 O          31.3829   30.1058   -0.7256 O.2       10 UNK        -0.4916 
     64 N          31.9969   29.6017    1.3994 N.am      11 UNK        -0.4279 
     65 CA         31.9399   28.1337    1.3083 C.3       11 UNK         0.1003 
     66 C          33.3428   27.4666    1.4155 C.2       11 UNK         0.5709 
     67 N          34.4439   28.2018    1.3036 N.am      11 UNK        -0.7358 
     68 O          33.4439   26.2518    1.5616 O.2       11 UNK        -0.4999 
     69 C69        30.8754   27.5158    2.2611 C.3       12 UNK        -0.0954 
     70 S70        30.9231   28.1143    3.9849 S.3       12 UNK        -0.2268 
     71 C71        31.9367   26.8639    4.8344 C.3       12 UNK         0.0203 
     72 H72        25.4945   20.4687    0.2909 H         1 UNK         0.0888 
     73 H73        25.5122   20.8029   -1.4429 H         1 UNK         0.0888 
     74 H74        26.4700   19.4718   -0.7904 H         1 UNK         0.0888 
     75 H75        28.6324   19.9800   -0.7289 H         1 UNK         0.3017 
     76 H76        30.5536   20.9495   -0.5016 H         1 UNK         0.0873 
     77 H77        29.4255   21.7880    1.7680 H         1 UNK         0.0745 
     78 H78        29.5198   23.3661    1.0572 H         1 UNK         0.0745 
     79 H79        31.0229   21.1512    3.4371 H         1 UNK         0.0705 
     80 H80        32.6176   21.8243    3.6537 H         1 UNK         0.0705 
     81 H81        32.5880   24.5882    3.4859 H         1 UNK         0.1334 
     82 H82        29.7722   26.1375    6.3202 H         1 UNK         0.1417 
     83 H83        29.4076   22.0968    4.9253 H         1 UNK         0.1562 
     84 H84        28.2419   24.5732    7.4465 H         1 UNK         0.0748 
     85 H85        28.2258   22.8915    6.9957 H         1 UNK         0.0748 
     86 H86        26.8395   26.3384    6.6351 H         1 UNK         0.0940 
     87 H87        25.3583   26.1374    5.7414 H         1 UNK         0.0940 
     88 H88        28.1311   26.5259    4.5210 H         1 UNK         0.0703 
     89 H89        27.3759   25.7435    2.6223 H         1 UNK         0.3081 
     90 H90        25.6533   24.5340    1.3410 H         1 UNK         0.0719 
     91 H91        23.4582   26.5132    0.5415 H         1 UNK         0.0809 
     92 H92        23.7875   24.9547   -0.2185 H         1 UNK         0.0809 
     93 H93        23.2119   25.0200    1.4371 H         1 UNK         0.0809 
     94 H94        25.6562   26.6546   -0.5573 H         1 UNK         0.2990 
     95 H95        27.4951   26.5079   -1.9957 H         1 UNK         0.0690 
     96 H96        28.9054   28.5988   -1.9078 H         1 UNK         0.0788 
     97 H97        29.0542   28.4406   -0.1643 H         1 UNK         0.0788 
     98 H98        27.4849   28.7647   -0.8901 H         1 UNK         0.0788 
     99 H99        29.6676   25.4662   -0.4753 H         1 UNK         0.2993 
    100 H100       31.2851   24.2593   -3.3753 H         1 UNK         0.0949 
    101 H101       33.3445   24.6978   -2.0610 H         1 UNK         0.0767 
    102 H102       32.7363   26.2009   -2.7369 H         1 UNK         0.0767 
    103 H103       32.4814   25.8413   -1.0350 H         1 UNK         0.0767 
    104 H104       31.4388   23.6568   -0.5489 H         1 UNK         0.3013 
    105 H105       28.1671   28.3661    2.9978 H         1 UNK         0.3121 
    106 H106       26.5328   30.7080    3.5524 H         1 UNK         0.0774 
    107 H107       27.8492   31.6674    1.6733 H         1 UNK         0.0815 
    108 H108       28.9755   30.3135    1.7337 H         1 UNK         0.0815 
    109 H109       27.3018   30.0663    1.2450 H         1 UNK         0.0815 
    110 H110       28.3396   32.7512    3.2766 H         1 UNK         0.2987 
    111 H111       29.2643   33.1755    5.9605 H         1 UNK         0.0949 
    112 H112       29.5569   34.8434    3.4053 H         1 UNK         0.0806 
    113 H113       28.2716   34.9835    4.6054 H         1 UNK         0.0806 
    114 H114       29.9221   35.4021    5.0310 H         1 UNK         0.0806 
    115 H115       30.7144   31.2994    6.0254 H         1 UNK         0.3010 
    116 H116       32.7257   30.4332    6.4037 H         1 UNK         0.0829 
    117 H117       33.0017   32.4026    7.8201 H         1 UNK         0.0813 
    118 H118       34.5469   32.0578    7.0674 H         1 UNK         0.0813 
    119 H119       33.5554   33.3887    6.4756 H         1 UNK         0.0813 
    120 H120       34.3875   32.9920    4.6512 H         1 UNK         0.3038 
    121 H121       35.9050   31.2500    3.0038 H         1 UNK         0.0769 
    122 H122       35.3185   34.2485    2.7099 H         1 UNK         0.0811 
    123 H123       36.5885   33.3743    1.8643 H         1 UNK         0.0811 
    124 H124       36.6586   33.5366    3.6106 H         1 UNK         0.0811 
    125 H125       32.7211   32.6865    2.5178 H         1 UNK         0.3204 
    126 H126       32.4975   32.3411   -0.3023 H         1 UNK         0.0748 
    127 H127       30.0406   32.5551    0.1536 H         1 UNK         0.0771 
    128 H128       30.3526   32.3959    1.8774 H         1 UNK         0.0771 
    129 H129       30.9687   33.7883    0.9941 H         1 UNK         0.0771 
    130 H130       32.3608   29.9507    2.2796 H         1 UNK         0.2980 
    131 H131       31.6190   27.8609    0.3018 H         1 UNK         0.0545 
    132 H132       35.3398   27.7461    1.3654 H         1 UNK         0.3459 
    133 H133       34.3972   29.1988    1.1378 H         1 UNK         0.3459 
    134 H134       30.9064   26.4258    2.2393 H         1 UNK         0.0616 
    135 H135       29.8861   27.7688    1.8831 H         1 UNK         0.0616 
    136 H136       32.9076   26.7922    4.3424 H         1 UNK         0.0634 
    137 H137       32.1345   27.2078    5.8503 H         1 UNK         0.0634 
@<TRIPOS>BOND
     1    1    2 1    
     2    1   72 1    
     3    1   73 1    
     4    1   74 1    
     5    2    3 2    
     6    2    4 am   BACKBONE|DICT|INTERRES
     7    4    5 1    
     8    4   75 1    
     9    5    6 1    
    10    5   35 1    
    11    5   76 1    
    12    6    7 1    
    13    6   77 1    
    14    6   78 1    
    15    7    8 1    
    16    8    9 1    
    17    8   79 1    
    18    8   80 1    
    19    9   10 ar   
    20    9   14 ar   
    21   10   11 ar   
    22   10   81 1    
    23   11   12 ar   
    24   11   71 1    
    25   12   13 ar   
    26   12   82 1    
    27   13   14 ar   
    28   13   15 1    
    29   14   83 1    
    30   15   16 1    
    31   15   84 1    
    32   15   85 1    
    33   16   17 1    
    34   17   18 1    
    35   17   86 1    
    36   17   87 1    
    37   18   19 1    
    38   18   37 1    
    39   18   88 1    
    40   19   20 am   BACKBONE|DICT|INTERRES
    41   19   89 1    
    42   20   21 2    
    43   20   22 1    
    44   22   23 1    
    45   22   24 1    
    46   22   90 1    
    47   23   91 1    
    48   23   92 1    
    49   23   93 1    
    50   24   25 am   BACKBONE|DICT|INTERRES
    51   24   94 1    
    52   25   26 2    
    53   25   27 1    
    54   27   28 1    
    55   27   29 1    
    56   27   95 1    
    57   28   96 1    
    58   28   97 1    
    59   28   98 1    
    60   29   30 am   BACKBONE|DICT|INTERRES
    61   29   99 1    
    62   30   31 2    
    63   30   32 1    
    64   32   33 1    
    65   32   34 1    
    66   32  100 1    
    67   33  101 1    
    68   33  102 1    
    69   33  103 1    
    70   34   35 am   BACKBONE|DICT|INTERRES
    71   34  104 1    
    72   35   36 2    
    73   37   38 2    
    74   37   39 am   BACKBONE|DICT|INTERRES
    75   39   40 1    
    76   39  105 1    
    77   40   41 1    
    78   40   42 1    
    79   40  106 1    
    80   41  107 1    
    81   41  108 1    
    82   41  109 1    
    83   42   43 2    
    84   42   44 am   BACKBONE|DICT|INTERRES
    85   44   45 1    
    86   44  110 1    
    87   45   46 1    
    88   45   47 1    
    89   45  111 1    
    90   46  112 1    
    91   46  113 1    
    92   46  114 1    
    93   47   48 2    
    94   47   49 am   BACKBONE|DICT|INTERRES
    95   49   50 1    
    96   49  115 1    
    97   50   51 1    
    98   50   52 1    
    99   50  116 1    
   100   51  117 1    
   101   51  118 1    
   102   51  119 1    
   103   52   53 2    
   104   52   54 am   BACKBONE|DICT|INTERRES
   105   54   55 1    
   106   54  120 1    
   107   55   56 1    
   108   55   57 1    
   109   55  121 1    
   110   56  122 1    
   111   56  123 1    
   112   56  124 1    
   113   57   58 2    
   114   57   59 am   BACKBONE|DICT|INTERRES
   115   59   60 1    
   116   59  125 1    
   117   60   61 1    
   118   60   62 1    
   119   60  126 1    
   120   61  127 1    
   121   61  128 1    
   122   61  129 1    
   123   62   63 2    
   124   62   64 am   BACKBONE|DICT|INTERRES
   125   64   65 1    
   126   64  130 1    
   127   65   66 1    
   128   65   69 1    
   129   65  131 1    
   130   66   67 am   BACKBONE|DICT|INTERRES
   131   66   68 2    
   132   67  132 1    
   133   67  133 1    
   134   69   70 1    
   135   69  134 1    
   136   69  135 1    
   137   70   71 1    
   138   71  136 1    
   139   71  137 1    
@<TRIPOS>SUBSTRUCTURE
     1 UNK         1 GROUP             0       ****    0 ROOT    
