@<TRIPOS>MOLECULE
3R136
137   139    1
SMALL
USER_CHARGES


@<TRIPOS>ATOM
      1 CA         24.8077   21.1360    2.8298 C.3       0 UNK        -0.1979 
      2 C          25.8399   21.9123    2.0264 C.2       0 UNK         0.4864 
      3 O          25.8699   21.8063    0.7989 O.2       0 UNK        -0.5359 
      4 N          26.6802   22.7059    2.7033 N.am      1 UNK        -0.4318 
      5 CA         27.7672   23.5116    2.1287 C.3       1 UNK         0.0824 
      6 C6         28.8378   23.8604    3.1967 C.3       12 UNK        -0.0944 
      7 S7         29.5471   22.3898    4.0084 S.3       12 UNK        -0.2672 
      8 C8         31.0521   22.1023    3.0134 C.3       12 UNK         0.0333 
      9 C9         32.1146   23.1993    3.1033 C.ar      12 UNK        -0.0807 
     10 C10        32.9776   23.3934    2.0202 C.ar      12 UNK        -0.0894 
     11 C11        33.9850   24.3632    2.0573 C.ar      12 UNK        -0.0804 
     12 C12        34.1125   25.1590    3.2054 C.ar      12 UNK        -0.0824 
     13 C13        33.2629   24.9747    4.3008 C.ar      12 UNK        -0.0762 
     14 C14        32.2748   23.9888    4.2481 C.ar      12 UNK        -0.0782 
     15 C15        33.4424   25.8154    5.5567 C.3       12 UNK         0.0230 
     16 S16        32.6833   27.4617    5.4001 S.3       12 UNK        -0.2608 
     17 C17        30.9140   27.1212    5.6990 C.3       12 UNK        -0.0989 
     18 CA         30.0023   27.8856    4.7059 C.3       5 UNK         0.0716 
     19 N          30.2795   27.4905    3.3230 N.am      5 UNK        -0.4135 
     20 C          29.8490   28.0955    2.2100 C.2       4 UNK         0.5031 
     21 O          28.9711   28.9613    2.1967 O.2       4 UNK        -0.5229 
     22 CA         30.5163   27.6687    0.8921 C.3       4 UNK         0.0329 
     23 CB         31.5199   26.5041    1.0325 C.3       4 UNK        -0.2001 
     24 N          29.5032   27.3072   -0.0907 N.am      4 UNK        -0.4303 
     25 C          29.6758   27.3691   -1.4181 C.2       3 UNK         0.5044 
     26 O          30.6869   27.8394   -1.9437 O.2       3 UNK        -0.5152 
     27 CA         28.5791   26.7667   -2.3208 C.3       3 UNK         0.0319 
     28 CB         29.1863   25.8090   -3.3622 C.3       3 UNK        -0.2001 
     29 N          27.5658   26.0359   -1.5562 N.am      3 UNK        -0.4354 
     30 C          26.4111   26.5539   -1.1216 C.2       2 UNK         0.4964 
     31 O          26.0208   27.6848   -1.4069 O.2       2 UNK        -0.5047 
     32 CA         25.5482   25.6720   -0.2009 C.3       2 UNK         0.0288 
     33 CB         24.3832   25.0496   -0.9869 C.3       2 UNK        -0.2113 
     34 N          26.2812   24.6036    0.4904 N.am      2 UNK        -0.4145 
     35 C          27.2324   24.7780    1.4177 C.2       1 UNK         0.5006 
     36 O          27.6584   25.8905    1.7366 O.2       1 UNK        -0.5103 
     37 C          28.5239   27.8348    5.1571 C.2       5 UNK         0.5055 
     38 O          28.2385   28.3457    6.2416 O.2       5 UNK        -0.5220 
     39 N          27.6054   27.2449    4.3748 N.am      6 UNK        -0.4450 
     40 CA         26.1669   27.3130    4.6680 C.3       6 UNK         0.0367 
     41 CB         25.4492   26.0521    4.1610 C.3       6 UNK        -0.1929 
     42 C          25.5155   28.5744    4.0743 C.2       6 UNK         0.5070 
     43 O          24.4737   28.9955    4.5780 O.2       6 UNK        -0.5237 
     44 N          26.1151   29.1453    3.0201 N.am      7 UNK        -0.4739 
     45 CA         25.6183   30.3372    2.3285 C.3       7 UNK         0.0276 
     46 CB         25.6688   30.0954    0.8127 C.3       7 UNK        -0.1927 
     47 C          26.4218   31.5934    2.6926 C.2       7 UNK         0.5013 
     48 O          25.8339   32.6713    2.7935 O.2       7 UNK        -0.5193 
     49 N          27.7380   31.4411    2.8739 N.am      8 UNK        -0.4253 
     50 CA         28.6758   32.5093    3.2099 C.3       8 UNK         0.0242 
     51 CB         29.3751   32.9925    1.9207 C.3       8 UNK        -0.2000 
     52 C          29.6313   32.0020    4.3015 C.2       8 UNK         0.4948 
     53 O          29.1730   31.3791    5.2599 O.2       8 UNK        -0.5275 
     54 N          30.9309   32.2712    4.1526 N.am      9 UNK        -0.4246 
     55 CA         32.0099   31.7640    4.9915 C.3       9 UNK         0.0261 
     56 CB         32.3582   32.7897    6.0833 C.3       9 UNK        -0.1959 
     57 C          33.2028   31.4994    4.0697 C.2       9 UNK         0.5033 
     58 O          33.4137   32.2736    3.1308 O.2       9 UNK        -0.5390 
     59 N          33.9380   30.4159    4.3546 N.am      10 UNK        -0.4215 
     60 CA         34.9949   29.8062    3.5351 C.3       10 UNK         0.0240 
     61 CB         36.1570   30.7927    3.2852 C.3       10 UNK        -0.1982 
     62 C          34.4510   29.1992    2.2250 C.2       10 UNK         0.4970 
     63 O          33.2607   29.3114    1.9248 O.2       10 UNK        -0.4916 
     64 N          35.3330   28.5220    1.4831 N.am      11 UNK        -0.4279 
     65 CA         35.0160   27.8962    0.1931 C.3       11 UNK         0.1003 
     66 C          34.8105   28.9578   -0.9201 C.2       11 UNK         0.5709 
     67 N          33.7105   28.9016   -1.6593 N.am      11 UNK        -0.7358 
     68 O          35.6659   29.8132   -1.1407 O.2       11 UNK        -0.4999 
     69 C69        36.0852   26.8522   -0.2195 C.3       12 UNK        -0.0954 
     70 S70        36.3640   25.5642    1.0437 S.3       12 UNK        -0.2268 
     71 C71        34.8901   24.5043    0.8287 C.3       12 UNK         0.0203 
     72 H72        23.8019   21.4132    2.5152 H         1 UNK         0.0888 
     73 H73        24.9337   20.0661    2.6667 H         1 UNK         0.0888 
     74 H74        24.8943   21.3287    3.8990 H         1 UNK         0.0888 
     75 H75        26.6077   22.7459    3.7098 H         1 UNK         0.3017 
     76 H76        28.2582   22.9138    1.3578 H         1 UNK         0.0873 
     77 H77        28.4070   24.4875    3.9788 H         1 UNK         0.0745 
     78 H78        29.6456   24.4449    2.7581 H         1 UNK         0.0745 
     79 H79        30.7498   21.9575    1.9750 H         1 UNK         0.0705 
     80 H80        31.5028   21.1633    3.3367 H         1 UNK         0.0705 
     81 H81        32.8691   22.7772    1.1376 H         1 UNK         0.1334 
     82 H82        34.8717   25.9252    3.2637 H         1 UNK         0.1417 
     83 H83        31.6362   23.8329    5.1061 H         1 UNK         0.1562 
     84 H84        34.5080   25.9425    5.7536 H         1 UNK         0.0748 
     85 H85        33.0354   25.3049    6.4311 H         1 UNK         0.0748 
     86 H86        30.7026   27.4162    6.7290 H         1 UNK         0.0940 
     87 H87        30.7180   26.0494    5.6461 H         1 UNK         0.0940 
     88 H88        30.2741   28.9405    4.7674 H         1 UNK         0.0703 
     89 H89        31.0034   26.7948    3.2197 H         1 UNK         0.3081 
     90 H90        31.0561   28.5488    0.5367 H         1 UNK         0.0719 
     91 H91        32.0034   26.2821    0.0819 H         1 UNK         0.0809 
     92 H92        32.3114   26.7467    1.7409 H         1 UNK         0.0809 
     93 H93        31.0367   25.5867    1.3647 H         1 UNK         0.0809 
     94 H94        28.6363   26.9470    0.2941 H         1 UNK         0.2990 
     95 H95        28.1145   27.5966   -2.8573 H         1 UNK         0.0690 
     96 H96        29.9004   26.3268   -4.0041 H         1 UNK         0.0788 
     97 H97        28.4173   25.3906   -4.0118 H         1 UNK         0.0788 
     98 H98        29.7147   24.9803   -2.8890 H         1 UNK         0.0788 
     99 H99        27.7993   25.0928   -1.2816 H         1 UNK         0.2993 
    100 H100       25.1311   26.3317    0.5631 H         1 UNK         0.0949 
    101 H101       24.7378   24.3559   -1.7504 H         1 UNK         0.0767 
    102 H102       23.7060   24.5059   -0.3276 H         1 UNK         0.0767 
    103 H103       23.7950   25.8183   -1.4906 H         1 UNK         0.0767 
    104 H104       25.9836   23.6465    0.3142 H         1 UNK         0.3013 
    105 H105       27.8755   26.8490    3.4791 H         1 UNK         0.3121 
    106 H106       26.0187   27.3459    5.7497 H         1 UNK         0.0774 
    107 H107       25.3447   26.0527    3.0774 H         1 UNK         0.0815 
    108 H108       24.4403   25.9977    4.5717 H         1 UNK         0.0815 
    109 H109       25.9690   25.1429    4.4607 H         1 UNK         0.0815 
    110 H110       27.0002   28.7707    2.6951 H         1 UNK         0.2987 
    111 H111       24.5773   30.5274    2.5996 H         1 UNK         0.0949 
    112 H112       26.6764   29.8508    0.4728 H         1 UNK         0.0806 
    113 H113       25.0106   29.2753    0.5267 H         1 UNK         0.0806 
    114 H114       25.3417   30.9782    0.2617 H         1 UNK         0.0806 
    115 H115       28.1464   30.5142    2.7698 H         1 UNK         0.3010 
    116 H116       28.1378   33.3527    3.6478 H         1 UNK         0.0829 
    117 H117       28.6446   33.3151    1.1785 H         1 UNK         0.0813 
    118 H118       30.0249   33.8473    2.1127 H         1 UNK         0.0813 
    119 H119       29.9772   32.2037    1.4667 H         1 UNK         0.0813 
    120 H120       31.2520   32.7430    3.3158 H         1 UNK         0.3038 
    121 H121       31.7067   30.8243    5.4587 H         1 UNK         0.0769 
    122 H122       32.6749   33.7417    5.6552 H         1 UNK         0.0811 
    123 H123       33.1705   32.4275    6.7145 H         1 UNK         0.0811 
    124 H124       31.5033   32.9819    6.7320 H         1 UNK         0.0811 
    125 H125       33.6356   29.8421    5.1309 H         1 UNK         0.3204 
    126 H126       35.3812   28.9741    4.1259 H         1 UNK         0.0748 
    127 H127       35.8811   31.5785    2.5812 H         1 UNK         0.0771 
    128 H128       36.4769   31.2708    4.2112 H         1 UNK         0.0771 
    129 H129       37.0279   30.2832    2.8720 H         1 UNK         0.0771 
    130 H130       36.2969   28.4694    1.7750 H         1 UNK         0.2980 
    131 H131       34.0776   27.3586    0.3160 H         1 UNK         0.0545 
    132 H132       33.5853   29.5838   -2.3900 H         1 UNK         0.3459 
    133 H133       32.9772   28.2284   -1.4872 H         1 UNK         0.3459 
    134 H134       35.8069   26.3661   -1.1565 H         1 UNK         0.0616 
    135 H135       37.0419   27.3433   -0.4070 H         1 UNK         0.0616 
    136 H136       34.2873   24.8707   -0.0029 H         1 UNK         0.0634 
    137 H137       35.2409   23.5138    0.5352 H         1 UNK         0.0634 
@<TRIPOS>BOND
     1    1    2 1    
     2    1   72 1    
     3    1   73 1    
     4    1   74 1    
     5    2    3 2    
     6    2    4 am   BACKBONE|DICT|INTERRES
     7    4    5 1    
     8    4   75 1    
     9    5    6 1    
    10    5   35 1    
    11    5   76 1    
    12    6    7 1    
    13    6   77 1    
    14    6   78 1    
    15    7    8 1    
    16    8    9 1    
    17    8   79 1    
    18    8   80 1    
    19    9   10 ar   
    20    9   14 ar   
    21   10   11 ar   
    22   10   81 1    
    23   11   12 ar   
    24   11   71 1    
    25   12   13 ar   
    26   12   82 1    
    27   13   14 ar   
    28   13   15 1    
    29   14   83 1    
    30   15   16 1    
    31   15   84 1    
    32   15   85 1    
    33   16   17 1    
    34   17   18 1    
    35   17   86 1    
    36   17   87 1    
    37   18   19 1    
    38   18   37 1    
    39   18   88 1    
    40   19   20 am   BACKBONE|DICT|INTERRES
    41   19   89 1    
    42   20   21 2    
    43   20   22 1    
    44   22   23 1    
    45   22   24 1    
    46   22   90 1    
    47   23   91 1    
    48   23   92 1    
    49   23   93 1    
    50   24   25 am   BACKBONE|DICT|INTERRES
    51   24   94 1    
    52   25   26 2    
    53   25   27 1    
    54   27   28 1    
    55   27   29 1    
    56   27   95 1    
    57   28   96 1    
    58   28   97 1    
    59   28   98 1    
    60   29   30 am   BACKBONE|DICT|INTERRES
    61   29   99 1    
    62   30   31 2    
    63   30   32 1    
    64   32   33 1    
    65   32   34 1    
    66   32  100 1    
    67   33  101 1    
    68   33  102 1    
    69   33  103 1    
    70   34   35 am   BACKBONE|DICT|INTERRES
    71   34  104 1    
    72   35   36 2    
    73   37   38 2    
    74   37   39 am   BACKBONE|DICT|INTERRES
    75   39   40 1    
    76   39  105 1    
    77   40   41 1    
    78   40   42 1    
    79   40  106 1    
    80   41  107 1    
    81   41  108 1    
    82   41  109 1    
    83   42   43 2    
    84   42   44 am   BACKBONE|DICT|INTERRES
    85   44   45 1    
    86   44  110 1    
    87   45   46 1    
    88   45   47 1    
    89   45  111 1    
    90   46  112 1    
    91   46  113 1    
    92   46  114 1    
    93   47   48 2    
    94   47   49 am   BACKBONE|DICT|INTERRES
    95   49   50 1    
    96   49  115 1    
    97   50   51 1    
    98   50   52 1    
    99   50  116 1    
   100   51  117 1    
   101   51  118 1    
   102   51  119 1    
   103   52   53 2    
   104   52   54 am   BACKBONE|DICT|INTERRES
   105   54   55 1    
   106   54  120 1    
   107   55   56 1    
   108   55   57 1    
   109   55  121 1    
   110   56  122 1    
   111   56  123 1    
   112   56  124 1    
   113   57   58 2    
   114   57   59 am   BACKBONE|DICT|INTERRES
   115   59   60 1    
   116   59  125 1    
   117   60   61 1    
   118   60   62 1    
   119   60  126 1    
   120   61  127 1    
   121   61  128 1    
   122   61  129 1    
   123   62   63 2    
   124   62   64 am   BACKBONE|DICT|INTERRES
   125   64   65 1    
   126   64  130 1    
   127   65   66 1    
   128   65   69 1    
   129   65  131 1    
   130   66   67 am   BACKBONE|DICT|INTERRES
   131   66   68 2    
   132   67  132 1    
   133   67  133 1    
   134   69   70 1    
   135   69  134 1    
   136   69  135 1    
   137   70   71 1    
   138   71  136 1    
   139   71  137 1    
@<TRIPOS>SUBSTRUCTURE
     1 UNK         1 GROUP             0       ****    0 ROOT    
