@<TRIPOS>MOLECULE
3R136
137   139    1
SMALL
USER_CHARGES


@<TRIPOS>ATOM
      1 CA         34.7377   29.0751   -0.8992 C.3       0 UNK        -0.1979 
      2 C          33.3237   28.7886   -0.4187 C.2       0 UNK         0.4864 
      3 O          32.5886   29.7253   -0.1031 O.2       0 UNK        -0.5359 
      4 N          32.9475   27.5052   -0.3480 N.am      1 UNK        -0.4318 
      5 CA         31.6138   27.0415    0.0477 C.3       1 UNK         0.0824 
      6 C6         31.6063   25.5461    0.4480 C.3       12 UNK        -0.0944 
      7 S7         32.7324   25.1797    1.8305 S.3       12 UNK        -0.2672 
      8 C8         31.9284   23.7071    2.5482 C.3       12 UNK         0.0333 
      9 C9         30.6993   23.9949    3.4113 C.ar      12 UNK        -0.0807 
     10 C10        30.5868   25.1700    4.1654 C.ar      12 UNK        -0.0894 
     11 C11        29.5116   25.3588    5.0361 C.ar      12 UNK        -0.0804 
     12 C12        28.5326   24.3686    5.1436 C.ar      12 UNK        -0.0824 
     13 C13        28.6048   23.2072    4.3691 C.ar      12 UNK        -0.0762 
     14 C14        29.6932   23.0259    3.5091 C.ar      12 UNK        -0.0782 
     15 C15        27.5264   22.1353    4.4900 C.3       12 UNK         0.0230 
     16 S16        26.1844   22.3460    3.2701 S.3       12 UNK        -0.2608 
     17 C17        25.4215   23.9076    3.8258 C.3       12 UNK        -0.0989 
     18 CA         25.8936   25.0938    2.9365 C.3       5 UNK         0.0716 
     19 N          25.1574   25.2398    1.6752 N.am      5 UNK        -0.4135 
     20 C          23.8537   25.5293    1.5342 C.2       4 UNK         0.5031 
     21 O          23.0689   25.6155    2.4797 O.2       4 UNK        -0.5229 
     22 CA         23.3170   25.8048    0.1121 C.3       4 UNK         0.0329 
     23 CB         22.7389   27.2284    0.0208 C.3       4 UNK        -0.2001 
     24 N          24.3164   25.6452   -0.9460 N.am      4 UNK        -0.4303 
     25 C          24.7727   24.4782   -1.4194 C.2       3 UNK         0.5044 
     26 O          24.3312   23.3820   -1.0748 O.2       3 UNK        -0.5152 
     27 CA         25.9398   24.5409   -2.4256 C.3       3 UNK         0.0319 
     28 CB         25.4264   24.3034   -3.8552 C.3       3 UNK        -0.2001 
     29 N          26.7200   25.7880   -2.3972 N.am      3 UNK        -0.4354 
     30 C          27.4001   26.2571   -1.3414 C.2       2 UNK         0.4964 
     31 O          27.3826   25.7304   -0.2249 O.2       2 UNK        -0.5047 
     32 CA         28.1694   27.5684   -1.5517 C.3       2 UNK         0.0288 
     33 CB         27.2833   28.7669   -1.1735 C.3       2 UNK        -0.2113 
     34 N          29.3476   27.5635   -0.6909 N.am      2 UNK        -0.4145 
     35 C          30.5914   27.2730   -1.0814 C.2       1 UNK         0.5006 
     36 O          30.9285   27.1228   -2.2595 O.2       1 UNK        -0.5103 
     37 C          25.9966   26.4505    3.6622 C.2       5 UNK         0.5055 
     38 O          25.6317   26.5902    4.8311 O.2       5 UNK        -0.5220 
     39 N          26.5350   27.4188    2.9199 N.am      6 UNK        -0.4450 
     40 CA         27.0721   28.6920    3.3823 C.3       6 UNK         0.0367 
     41 CB         26.1362   29.8288    2.9374 C.3       6 UNK        -0.1929 
     42 C          28.4638   28.8145    2.7429 C.2       6 UNK         0.5070 
     43 O          28.8528   27.9300    1.9740 O.2       6 UNK        -0.5237 
     44 N          29.2044   29.8856    3.0387 N.am      7 UNK        -0.4739 
     45 CA         30.5196   30.1126    2.4433 C.3       7 UNK         0.0276 
     46 CB         31.5921   29.3329    3.2250 C.3       7 UNK        -0.1927 
     47 C          30.8599   31.6020    2.3942 C.2       7 UNK         0.5013 
     48 O          30.3489   32.3776    3.2056 O.2       7 UNK        -0.5193 
     49 N          31.7565   31.9498    1.4668 N.am      8 UNK        -0.4253 
     50 CA         32.3519   33.2732    1.3066 C.3       8 UNK         0.0242 
     51 CB         31.4153   34.1688    0.4698 C.3       8 UNK        -0.2000 
     52 C          33.7448   33.0989    0.6713 C.2       8 UNK         0.4948 
     53 O          33.8956   33.3661   -0.5204 O.2       8 UNK        -0.5275 
     54 N          34.7603   32.6241    1.4064 N.am      9 UNK        -0.4246 
     55 CA         34.7612   32.1997    2.8062 C.3       9 UNK         0.0261 
     56 CB         35.4843   33.2548    3.6588 C.3       9 UNK        -0.1959 
     57 C          35.4688   30.8426    2.8958 C.2       9 UNK         0.5033 
     58 O          36.4163   30.5990    2.1444 O.2       9 UNK        -0.5390 
     59 N          34.9924   30.0002    3.8157 N.am      10 UNK        -0.4215 
     60 CA         35.4245   28.6300    4.0839 C.3       10 UNK         0.0240 
     61 CB         35.2052   27.7124    2.8561 C.3       10 UNK        -0.1982 
     62 C          34.6662   28.1872    5.3466 C.2       10 UNK         0.4970 
     63 O          34.6687   28.9413    6.3220 O.2       10 UNK        -0.4916 
     64 N          33.9956   27.0270    5.3040 N.am      11 UNK        -0.4279 
     65 CA         33.1822   26.4687    6.3989 C.3       11 UNK         0.1003 
     66 C          34.0318   25.9989    7.6201 C.2       11 UNK         0.5709 
     67 N          33.4138   25.7638    8.7694 N.am      11 UNK        -0.7358 
     68 O          35.2418   25.7971    7.5258 O.2       11 UNK        -0.4999 
     69 C69        31.9906   27.4092    6.7657 C.3       12 UNK        -0.0954 
     70 S70        30.4887   26.5425    7.3373 S.3       12 UNK        -0.2268 
     71 C71        29.4083   26.6240    5.8725 C.3       12 UNK         0.0203 
     72 H72        35.3007   28.1599   -1.0816 H         1 UNK         0.0888 
     73 H73        34.7087   29.6493   -1.8247 H         1 UNK         0.0888 
     74 H74        35.2747   29.6597   -0.1533 H         1 UNK         0.0888 
     75 H75        33.5898   26.7796   -0.6309 H         1 UNK         0.3017 
     76 H76        31.3039   27.6209    0.9172 H         1 UNK         0.0873 
     77 H77        30.5975   25.2442    0.7398 H         1 UNK         0.0745 
     78 H78        31.8848   24.9134   -0.3972 H         1 UNK         0.0745 
     79 H79        31.6742   23.0203    1.7392 H         1 UNK         0.0705 
     80 H80        32.6608   23.1906    3.1697 H         1 UNK         0.0705 
     81 H81        31.3488   25.9324    4.1021 H         1 UNK         0.1334 
     82 H82        27.7098   24.5084    5.8308 H         1 UNK         0.1417 
     83 H83        29.7667   22.1144    2.9311 H         1 UNK         0.1562 
     84 H84        27.1055   22.1311    5.4967 H         1 UNK         0.0748 
     85 H85        27.9726   21.1496    4.3495 H         1 UNK         0.0748 
     86 H86        25.6707   24.0549    4.8766 H         1 UNK         0.0940 
     87 H87        24.3373   23.7977    3.8078 H         1 UNK         0.0940 
     88 H88        26.9229   24.8859    2.6367 H         1 UNK         0.0703 
     89 H89        25.7379   25.2200    0.8432 H         1 UNK         0.3081 
     90 H90        22.5074   25.0946   -0.0688 H         1 UNK         0.0719 
     91 H91        23.5003   27.9861    0.2108 H         1 UNK         0.0809 
     92 H92        22.3091   27.4210   -0.9624 H         1 UNK         0.0809 
     93 H93        21.9431   27.3771    0.7520 H         1 UNK         0.0809 
     94 H94        24.7378   26.4913   -1.2999 H         1 UNK         0.2990 
     95 H95        26.6216   23.7274   -2.1691 H         1 UNK         0.0690 
     96 H96        26.2490   24.2355   -4.5674 H         1 UNK         0.0788 
     97 H97        24.7610   25.1030   -4.1832 H         1 UNK         0.0788 
     98 H98        24.8682   23.3681   -3.9203 H         1 UNK         0.0788 
     99 H99        26.7667   26.3009   -3.2665 H         1 UNK         0.2993 
    100 H100       28.4632   27.6559   -2.6001 H         1 UNK         0.0949 
    101 H101       26.4090   28.8302   -1.8225 H         1 UNK         0.0767 
    102 H102       26.9245   28.6959   -0.1462 H         1 UNK         0.0767 
    103 H103       27.8278   29.7063   -1.2712 H         1 UNK         0.0767 
    104 H104       29.1544   27.6152    0.3115 H         1 UNK         0.3013 
    105 H105       26.8994   27.1538    2.0116 H         1 UNK         0.3121 
    106 H106       27.1837   28.6934    4.4685 H         1 UNK         0.0774 
    107 H107       25.1298   29.6852    3.3311 H         1 UNK         0.0815 
    108 H108       26.4885   30.7952    3.2994 H         1 UNK         0.0815 
    109 H109       26.0621   29.8928    1.8513 H         1 UNK         0.0815 
    110 H110       28.8543   30.6269    3.6329 H         1 UNK         0.2987 
    111 H111       30.4945   29.7630    1.4095 H         1 UNK         0.0949 
    112 H112       31.7074   29.7178    4.2384 H         1 UNK         0.0806 
    113 H113       32.5556   29.4133    2.7251 H         1 UNK         0.0806 
    114 H114       31.3556   28.2712    3.2914 H         1 UNK         0.0806 
    115 H115       32.1230   31.2231    0.8487 H         1 UNK         0.3010 
    116 H116       32.4817   33.7470    2.2817 H         1 UNK         0.0829 
    117 H117       30.4644   34.3318    0.9772 H         1 UNK         0.0813 
    118 H118       31.8628   35.1486    0.2985 H         1 UNK         0.0813 
    119 H119       31.2019   33.7296   -0.5056 H         1 UNK         0.0813 
    120 H120       35.6355   32.4339    0.9363 H         1 UNK         0.3038 
    121 H121       33.7500   32.0771    3.1914 H         1 UNK         0.0769 
    122 H122       36.5160   33.3977    3.3341 H         1 UNK         0.0811 
    123 H123       35.5105   32.9603    4.7089 H         1 UNK         0.0811 
    124 H124       34.9811   34.2203    3.6057 H         1 UNK         0.0811 
    125 H125       34.2839   30.3301    4.4588 H         1 UNK         0.3204 
    126 H126       36.4877   28.6446    4.3306 H         1 UNK         0.0748 
    127 H127       35.7952   28.0396    2.0007 H         1 UNK         0.0771 
    128 H128       35.5132   26.6868    3.0634 H         1 UNK         0.0771 
    129 H129       34.1619   27.6934    2.5429 H         1 UNK         0.0771 
    130 H130       34.0693   26.4567    4.4744 H         1 UNK         0.2980 
    131 H131       32.7729   25.5477    5.9845 H         1 UNK         0.0545 
    132 H132       33.9452   25.4422    9.5629 H         1 UNK         0.3459 
    133 H133       32.4175   25.9058    8.8467 H         1 UNK         0.3459 
    134 H134       31.7164   28.0180    5.9055 H         1 UNK         0.0616 
    135 H135       32.2875   28.1272    7.5322 H         1 UNK         0.0616 
    136 H136       29.6393   27.4978    5.2630 H         1 UNK         0.0634 
    137 H137       28.3805   26.7637    6.2114 H         1 UNK         0.0634 
@<TRIPOS>BOND
     1    1    2 1    
     2    1   72 1    
     3    1   73 1    
     4    1   74 1    
     5    2    3 2    
     6    2    4 am   BACKBONE|DICT|INTERRES
     7    4    5 1    
     8    4   75 1    
     9    5    6 1    
    10    5   35 1    
    11    5   76 1    
    12    6    7 1    
    13    6   77 1    
    14    6   78 1    
    15    7    8 1    
    16    8    9 1    
    17    8   79 1    
    18    8   80 1    
    19    9   10 ar   
    20    9   14 ar   
    21   10   11 ar   
    22   10   81 1    
    23   11   12 ar   
    24   11   71 1    
    25   12   13 ar   
    26   12   82 1    
    27   13   14 ar   
    28   13   15 1    
    29   14   83 1    
    30   15   16 1    
    31   15   84 1    
    32   15   85 1    
    33   16   17 1    
    34   17   18 1    
    35   17   86 1    
    36   17   87 1    
    37   18   19 1    
    38   18   37 1    
    39   18   88 1    
    40   19   20 am   BACKBONE|DICT|INTERRES
    41   19   89 1    
    42   20   21 2    
    43   20   22 1    
    44   22   23 1    
    45   22   24 1    
    46   22   90 1    
    47   23   91 1    
    48   23   92 1    
    49   23   93 1    
    50   24   25 am   BACKBONE|DICT|INTERRES
    51   24   94 1    
    52   25   26 2    
    53   25   27 1    
    54   27   28 1    
    55   27   29 1    
    56   27   95 1    
    57   28   96 1    
    58   28   97 1    
    59   28   98 1    
    60   29   30 am   BACKBONE|DICT|INTERRES
    61   29   99 1    
    62   30   31 2    
    63   30   32 1    
    64   32   33 1    
    65   32   34 1    
    66   32  100 1    
    67   33  101 1    
    68   33  102 1    
    69   33  103 1    
    70   34   35 am   BACKBONE|DICT|INTERRES
    71   34  104 1    
    72   35   36 2    
    73   37   38 2    
    74   37   39 am   BACKBONE|DICT|INTERRES
    75   39   40 1    
    76   39  105 1    
    77   40   41 1    
    78   40   42 1    
    79   40  106 1    
    80   41  107 1    
    81   41  108 1    
    82   41  109 1    
    83   42   43 2    
    84   42   44 am   BACKBONE|DICT|INTERRES
    85   44   45 1    
    86   44  110 1    
    87   45   46 1    
    88   45   47 1    
    89   45  111 1    
    90   46  112 1    
    91   46  113 1    
    92   46  114 1    
    93   47   48 2    
    94   47   49 am   BACKBONE|DICT|INTERRES
    95   49   50 1    
    96   49  115 1    
    97   50   51 1    
    98   50   52 1    
    99   50  116 1    
   100   51  117 1    
   101   51  118 1    
   102   51  119 1    
   103   52   53 2    
   104   52   54 am   BACKBONE|DICT|INTERRES
   105   54   55 1    
   106   54  120 1    
   107   55   56 1    
   108   55   57 1    
   109   55  121 1    
   110   56  122 1    
   111   56  123 1    
   112   56  124 1    
   113   57   58 2    
   114   57   59 am   BACKBONE|DICT|INTERRES
   115   59   60 1    
   116   59  125 1    
   117   60   61 1    
   118   60   62 1    
   119   60  126 1    
   120   61  127 1    
   121   61  128 1    
   122   61  129 1    
   123   62   63 2    
   124   62   64 am   BACKBONE|DICT|INTERRES
   125   64   65 1    
   126   64  130 1    
   127   65   66 1    
   128   65   69 1    
   129   65  131 1    
   130   66   67 am   BACKBONE|DICT|INTERRES
   131   66   68 2    
   132   67  132 1    
   133   67  133 1    
   134   69   70 1    
   135   69  134 1    
   136   69  135 1    
   137   70   71 1    
   138   71  136 1    
   139   71  137 1    
@<TRIPOS>SUBSTRUCTURE
     1 UNK         1 GROUP             0       ****    0 ROOT    
