@<TRIPOS>MOLECULE
3R136
137   139    1
SMALL
USER_CHARGES


@<TRIPOS>ATOM
      1 CA         29.2132   20.2211    1.4970 C.3       0 UNK        -0.1979 
      2 C          29.0438   21.2185    0.3609 C.2       0 UNK         0.4864 
      3 O          28.0177   21.8984    0.3058 O.2       0 UNK        -0.5359 
      4 N          30.0485   21.3072   -0.5278 N.am      1 UNK        -0.4318 
      5 CA         30.1436   22.1865   -1.7059 C.3       1 UNK         0.0824 
      6 C6         30.7416   23.5985   -1.4024 C.3       12 UNK        -0.0944 
      7 S7         29.9092   24.5923   -0.1078 S.3       12 UNK        -0.2672 
      8 C8         31.0140   24.2207    1.2930 C.3       12 UNK         0.0333 
      9 C9         30.5141   24.7658    2.6232 C.ar      12 UNK        -0.0807 
     10 C10        31.2599   25.7292    3.3080 C.ar      12 UNK        -0.0894 
     11 C11        30.8722   26.1647    4.5792 C.ar      12 UNK        -0.0804 
     12 C12        29.7174   25.6322    5.1610 C.ar      12 UNK        -0.0824 
     13 C13        28.9272   24.7155    4.4590 C.ar      12 UNK        -0.0762 
     14 C14        29.3406   24.2698    3.1989 C.ar      12 UNK        -0.0782 
     15 C15        27.6061   24.2383    5.0439 C.3       12 UNK         0.0230 
     16 S16        26.1860   25.0518    4.2369 S.3       12 UNK        -0.2608 
     17 C17        26.3454   26.7916    4.7843 C.3       12 UNK        -0.0989 
     18 CA         27.2124   27.6495    3.8291 C.3       5 UNK         0.0716 
     19 N          26.7784   27.5776    2.4377 N.am      5 UNK        -0.4135 
     20 C          27.5041   27.9951    1.3943 C.2       4 UNK         0.5031 
     21 O          28.5867   28.5746    1.5060 O.2       4 UNK        -0.5229 
     22 CA         26.9384   27.6719    0.0003 C.3       4 UNK         0.0329 
     23 CB         27.9102   28.0501   -1.1338 C.3       4 UNK        -0.2001 
     24 N          26.6125   26.2489   -0.1146 N.am      4 UNK        -0.4303 
     25 C          25.4919   25.6591    0.3258 C.2       3 UNK         0.5044 
     26 O          24.5884   26.2721    0.8977 O.2       3 UNK        -0.5152 
     27 CA         25.3852   24.1339    0.1213 C.3       3 UNK         0.0319 
     28 CB         23.9278   23.6264    0.1158 C.3       3 UNK        -0.2001 
     29 N          26.1211   23.6611   -1.0590 N.am      3 UNK        -0.4354 
     30 C          25.9038   24.0027   -2.3420 C.2       2 UNK         0.4964 
     31 O          24.9583   24.7010   -2.7106 O.2       2 UNK        -0.5047 
     32 CA         26.9378   23.5295   -3.3820 C.3       2 UNK         0.0288 
     33 CB         27.0848   24.5254   -4.5488 C.3       2 UNK        -0.2113 
     34 N          28.2475   23.3470   -2.7556 N.am      2 UNK        -0.4145 
     35 C          28.8561   22.1735   -2.5602 C.2       1 UNK         0.5006 
     36 O          28.4403   21.1008   -3.0054 O.2       1 UNK        -0.5103 
     37 C          27.3303   29.1111    4.2905 C.2       5 UNK         0.5055 
     38 O          26.4313   29.9115    4.0223 O.2       5 UNK        -0.5220 
     39 N          28.4742   29.4361    4.9089 N.am      6 UNK        -0.4450 
     40 CA         28.9828   30.7698    5.2634 C.3       6 UNK         0.0367 
     41 CB         28.0211   31.5385    6.1897 C.3       6 UNK        -0.1929 
     42 C          29.3912   31.6209    4.0447 C.2       6 UNK         0.5070 
     43 O          30.4442   32.2578    4.0892 O.2       6 UNK        -0.5237 
     44 N          28.5865   31.5919    2.9730 N.am      7 UNK        -0.4739 
     45 CA         28.8087   32.2878    1.7009 C.3       7 UNK         0.0276 
     46 CB         27.6163   32.0364    0.7647 C.3       7 UNK        -0.1927 
     47 C          30.1317   31.9158    1.0091 C.2       7 UNK         0.5013 
     48 O          30.7603   32.7884    0.4077 O.2       7 UNK        -0.5193 
     49 N          30.5670   30.6559    1.1525 N.am      8 UNK        -0.4253 
     50 CA         31.8751   30.1375    0.7372 C.3       8 UNK         0.0242 
     51 CB         31.8070   28.5985    0.7144 C.3       8 UNK        -0.2000 
     52 C          33.0368   30.6623    1.6136 C.2       8 UNK         0.4948 
     53 O          33.7922   29.8678    2.1779 O.2       8 UNK        -0.5275 
     54 N          33.1461   31.9950    1.7281 N.am      9 UNK        -0.4246 
     55 CA         34.1716   32.7719    2.4406 C.3       9 UNK         0.0261 
     56 CB         35.4916   32.7449    1.6416 C.3       9 UNK        -0.1959 
     57 C          34.3700   32.3599    3.9150 C.2       9 UNK         0.5033 
     58 O          35.4999   32.3799    4.4079 O.2       9 UNK        -0.5390 
     59 N          33.2783   31.9470    4.5782 N.am      10 UNK        -0.4215 
     60 CA         33.2164   31.3699    5.9284 C.3       10 UNK         0.0240 
     61 CB         33.5893   32.4265    6.9901 C.3       10 UNK        -0.1982 
     62 C          34.0021   30.0512    6.1161 C.2       10 UNK         0.4970 
     63 O          34.1452   29.6163    7.2593 O.2       10 UNK        -0.4916 
     64 N          34.4732   29.4393    5.0159 N.am      11 UNK        -0.4279 
     65 CA         35.2752   28.2043    4.9256 C.3       11 UNK         0.1003 
     66 C          36.4799   28.0675    5.9072 C.2       11 UNK         0.5709 
     67 N          37.1181   29.1643    6.2988 N.am      11 UNK        -0.7358 
     68 O          36.8718   26.9663    6.2875 O.2       11 UNK        -0.4999 
     69 C69        34.4138   26.9218    4.7347 C.3       12 UNK        -0.0954 
     70 S70        33.1988   26.5776    6.0536 S.3       12 UNK        -0.2268 
     71 C71        31.6716   27.2354    5.3114 C.3       12 UNK         0.0203 
     72 H72        28.4043   19.4913    1.4779 H         1 UNK         0.0888 
     73 H73        30.1585   19.6826    1.4320 H         1 UNK         0.0888 
     74 H74        29.1830   20.7390    2.4554 H         1 UNK         0.0888 
     75 H75        30.8349   20.6835   -0.4138 H         1 UNK         0.3017 
     76 H76        30.8752   21.6944   -2.3491 H         1 UNK         0.0873 
     77 H77        31.7860   23.4727   -1.1128 H         1 UNK         0.0745 
     78 H78        30.7916   24.1973   -2.3138 H         1 UNK         0.0745 
     79 H79        32.0057   24.6157    1.0667 H         1 UNK         0.0705 
     80 H80        31.1322   23.1411    1.3871 H         1 UNK         0.0705 
     81 H81        32.1529   26.1262    2.8506 H         1 UNK         0.1334 
     82 H82        29.4044   25.9694    6.1399 H         1 UNK         0.1417 
     83 H83        28.7431   23.5472    2.6585 H         1 UNK         0.1562 
     84 H84        27.5659   24.4140    6.1200 H         1 UNK         0.0748 
     85 H85        27.5192   23.1594    4.9070 H         1 UNK         0.0748 
     86 H86        26.7539   26.8097    5.7965 H         1 UNK         0.0940 
     87 H87        25.3402   27.2113    4.8580 H         1 UNK         0.0940 
     88 H88        28.2191   27.2405    3.8244 H         1 UNK         0.0703 
     89 H89        25.8926   27.1201    2.2559 H         1 UNK         0.3081 
     90 H90        26.0273   28.2604   -0.1259 H         1 UNK         0.0719 
     91 H91        28.8491   27.5002   -1.0590 H         1 UNK         0.0809 
     92 H92        27.4771   27.8442   -2.1127 H         1 UNK         0.0809 
     93 H93        28.1533   29.1130   -1.1047 H         1 UNK         0.0809 
     94 H94        27.3342   25.6573   -0.4991 H         1 UNK         0.2990 
     95 H95        25.8839   23.6853    0.9821 H         1 UNK         0.0690 
     96 H96        23.8851   22.5463   -0.0242 H         1 UNK         0.0788 
     97 H97        23.3375   24.0924   -0.6736 H         1 UNK         0.0788 
     98 H98        23.4346   23.8487    1.0629 H         1 UNK         0.0788 
     99 H99        26.9095   23.0552   -0.8396 H         1 UNK         0.2993 
    100 H100       26.5668   22.5845   -3.7842 H         1 UNK         0.0949 
    101 H101       27.3856   25.5140   -4.1995 H         1 UNK         0.0767 
    102 H102       27.8285   24.1835   -5.2688 H         1 UNK         0.0767 
    103 H103       26.1444   24.6405   -5.0896 H         1 UNK         0.0767 
    104 H104       28.6579   24.1623   -2.3202 H         1 UNK         0.3013 
    105 H105       29.1425   28.6910    5.0413 H         1 UNK         0.3121 
    106 H106       29.8940   30.5856    5.8330 H         1 UNK         0.0774 
    107 H107       27.0961   31.8170    5.6845 H         1 UNK         0.0815 
    108 H108       27.7601   30.9491    7.0685 H         1 UNK         0.0815 
    109 H109       28.4827   32.4613    6.5433 H         1 UNK         0.0815 
    110 H110       27.7391   31.0382    3.0516 H         1 UNK         0.2987 
    111 H111       28.8513   33.3564    1.9217 H         1 UNK         0.0949 
    112 H112       27.7437   32.5654   -0.1809 H         1 UNK         0.0806 
    113 H113       27.5011   30.9777    0.5328 H         1 UNK         0.0806 
    114 H114       26.6834   32.3859    1.2073 H         1 UNK         0.0806 
    115 H115       29.9379   29.9862    1.5886 H         1 UNK         0.3010 
    116 H116       32.0688   30.4774   -0.2822 H         1 UNK         0.0829 
    117 H117       31.0362   28.2444    0.0299 H         1 UNK         0.0813 
    118 H118       32.7527   28.1633    0.3893 H         1 UNK         0.0813 
    119 H119       31.5808   28.1970    1.7023 H         1 UNK         0.0813 
    120 H120       32.4316   32.5409    1.2511 H         1 UNK         0.3038 
    121 H121       33.8154   33.8028    2.4616 H         1 UNK         0.0769 
    122 H122       36.2343   33.4104    2.0835 H         1 UNK         0.0811 
    123 H123       35.3400   33.0712    0.6128 H         1 UNK         0.0811 
    124 H124       35.9240   31.7438    1.6159 H         1 UNK         0.0811 
    125 H125       32.3788   32.0111    4.1059 H         1 UNK         0.3204 
    126 H126       32.1709   31.1084    6.0876 H         1 UNK         0.0748 
    127 H127       33.3960   32.0575    7.9982 H         1 UNK         0.0771 
    128 H128       34.6447   32.6960    6.9409 H         1 UNK         0.0771 
    129 H129       33.0037   33.3372    6.8645 H         1 UNK         0.0771 
    130 H130       34.2757   29.8641    4.1153 H         1 UNK         0.2980 
    131 H131       35.7884   28.3246    3.9708 H         1 UNK         0.0545 
    132 H132       37.9041   29.0833    6.9239 H         1 UNK         0.3459 
    133 H133       36.8080   30.0719    5.9873 H         1 UNK         0.3459 
    134 H134       35.0507   26.0428    4.6250 H         1 UNK         0.0616 
    135 H135       33.8918   27.0062    3.7836 H         1 UNK         0.0616 
    136 H136       31.0722   27.6724    6.1112 H         1 UNK         0.0634 
    137 H137       31.9039   28.0559    4.6307 H         1 UNK         0.0634 
@<TRIPOS>BOND
     1    1    2 1    
     2    1   72 1    
     3    1   73 1    
     4    1   74 1    
     5    2    3 2    
     6    2    4 am   BACKBONE|DICT|INTERRES
     7    4    5 1    
     8    4   75 1    
     9    5    6 1    
    10    5   35 1    
    11    5   76 1    
    12    6    7 1    
    13    6   77 1    
    14    6   78 1    
    15    7    8 1    
    16    8    9 1    
    17    8   79 1    
    18    8   80 1    
    19    9   10 ar   
    20    9   14 ar   
    21   10   11 ar   
    22   10   81 1    
    23   11   12 ar   
    24   11   71 1    
    25   12   13 ar   
    26   12   82 1    
    27   13   14 ar   
    28   13   15 1    
    29   14   83 1    
    30   15   16 1    
    31   15   84 1    
    32   15   85 1    
    33   16   17 1    
    34   17   18 1    
    35   17   86 1    
    36   17   87 1    
    37   18   19 1    
    38   18   37 1    
    39   18   88 1    
    40   19   20 am   BACKBONE|DICT|INTERRES
    41   19   89 1    
    42   20   21 2    
    43   20   22 1    
    44   22   23 1    
    45   22   24 1    
    46   22   90 1    
    47   23   91 1    
    48   23   92 1    
    49   23   93 1    
    50   24   25 am   BACKBONE|DICT|INTERRES
    51   24   94 1    
    52   25   26 2    
    53   25   27 1    
    54   27   28 1    
    55   27   29 1    
    56   27   95 1    
    57   28   96 1    
    58   28   97 1    
    59   28   98 1    
    60   29   30 am   BACKBONE|DICT|INTERRES
    61   29   99 1    
    62   30   31 2    
    63   30   32 1    
    64   32   33 1    
    65   32   34 1    
    66   32  100 1    
    67   33  101 1    
    68   33  102 1    
    69   33  103 1    
    70   34   35 am   BACKBONE|DICT|INTERRES
    71   34  104 1    
    72   35   36 2    
    73   37   38 2    
    74   37   39 am   BACKBONE|DICT|INTERRES
    75   39   40 1    
    76   39  105 1    
    77   40   41 1    
    78   40   42 1    
    79   40  106 1    
    80   41  107 1    
    81   41  108 1    
    82   41  109 1    
    83   42   43 2    
    84   42   44 am   BACKBONE|DICT|INTERRES
    85   44   45 1    
    86   44  110 1    
    87   45   46 1    
    88   45   47 1    
    89   45  111 1    
    90   46  112 1    
    91   46  113 1    
    92   46  114 1    
    93   47   48 2    
    94   47   49 am   BACKBONE|DICT|INTERRES
    95   49   50 1    
    96   49  115 1    
    97   50   51 1    
    98   50   52 1    
    99   50  116 1    
   100   51  117 1    
   101   51  118 1    
   102   51  119 1    
   103   52   53 2    
   104   52   54 am   BACKBONE|DICT|INTERRES
   105   54   55 1    
   106   54  120 1    
   107   55   56 1    
   108   55   57 1    
   109   55  121 1    
   110   56  122 1    
   111   56  123 1    
   112   56  124 1    
   113   57   58 2    
   114   57   59 am   BACKBONE|DICT|INTERRES
   115   59   60 1    
   116   59  125 1    
   117   60   61 1    
   118   60   62 1    
   119   60  126 1    
   120   61  127 1    
   121   61  128 1    
   122   61  129 1    
   123   62   63 2    
   124   62   64 am   BACKBONE|DICT|INTERRES
   125   64   65 1    
   126   64  130 1    
   127   65   66 1    
   128   65   69 1    
   129   65  131 1    
   130   66   67 am   BACKBONE|DICT|INTERRES
   131   66   68 2    
   132   67  132 1    
   133   67  133 1    
   134   69   70 1    
   135   69  134 1    
   136   69  135 1    
   137   70   71 1    
   138   71  136 1    
   139   71  137 1    
@<TRIPOS>SUBSTRUCTURE
     1 UNK         1 GROUP             0       ****    0 ROOT    
