@<TRIPOS>MOLECULE
3R136
137   139    1
SMALL
USER_CHARGES


@<TRIPOS>ATOM
      1 CA         29.8080   19.5797   -1.1347 C.3       0 UNK        -0.1979 
      2 C          28.4321   19.4850   -0.4804 C.2       0 UNK         0.4864 
      3 O          28.0352   18.3978   -0.0633 O.2       0 UNK        -0.5359 
      4 N          27.6708   20.5800   -0.3687 N.am      1 UNK        -0.4318 
      5 CA         27.9776   21.9259   -0.8449 C.3       1 UNK         0.0824 
      6 C6         28.7321   22.7500    0.2289 C.3       12 UNK        -0.0944 
      7 S7         29.3779   24.3406   -0.3986 S.3       12 UNK        -0.2672 
      8 C8         31.1831   24.0983   -0.2886 C.3       12 UNK         0.0333 
      9 C9         31.7350   24.5199    1.0682 C.ar      12 UNK        -0.0807 
     10 C10        32.5172   25.6738    1.1878 C.ar      12 UNK        -0.0894 
     11 C11        33.0275   26.0620    2.4316 C.ar      12 UNK        -0.0804 
     12 C12        32.7271   25.3040    3.5679 C.ar      12 UNK        -0.0824 
     13 C13        31.9306   24.1605    3.4633 C.ar      12 UNK        -0.0762 
     14 C14        31.4696   23.7569    2.2084 C.ar      12 UNK        -0.0782 
     15 C15        31.5198   23.3804    4.7035 C.3       12 UNK         0.0230 
     16 S16        29.7075   23.3927    4.9264 S.3       12 UNK        -0.2608 
     17 C17        29.3817   25.1613    5.2456 C.3       12 UNK        -0.0989 
     18 CA         29.0485   25.9798    3.9631 C.3       5 UNK         0.0716 
     19 N          27.9400   25.4407    3.1632 N.am      5 UNK        -0.4135 
     20 C          26.6549   25.3567    3.5364 C.2       4 UNK         0.5031 
     21 O          26.2351   25.7010    4.6429 O.2       4 UNK        -0.5229 
     22 CA         25.6773   24.8020    2.4773 C.3       4 UNK         0.0329 
     23 CB         24.1976   24.9638    2.8852 C.3       4 UNK        -0.2001 
     24 N          25.8936   25.3488    1.1293 N.am      4 UNK        -0.4303 
     25 C          25.8928   26.6434    0.7665 C.2       3 UNK         0.5044 
     26 O          25.7408   27.5732    1.5569 O.2       3 UNK        -0.5152 
     27 CA         26.1320   26.9806   -0.7179 C.3       3 UNK         0.0319 
     28 CB         27.4395   27.7702   -0.8846 C.3       3 UNK        -0.2001 
     29 N          26.1846   25.7984   -1.5783 N.am      3 UNK        -0.4354 
     30 C          25.1157   25.1906   -2.1121 C.2       2 UNK         0.4964 
     31 O          23.9596   25.5936   -1.9843 O.2       2 UNK        -0.5047 
     32 CA         25.3828   23.8967   -2.9027 C.3       2 UNK         0.0288 
     33 CB         25.5507   24.2040   -4.3997 C.3       2 UNK        -0.2113 
     34 N          26.5579   23.1603   -2.4218 N.am      2 UNK        -0.4145 
     35 C          26.6384   22.5736   -1.2193 C.2       1 UNK         0.5006 
     36 O          25.7194   22.5643   -0.3965 O.2       1 UNK        -0.5103 
     37 C          28.8893   27.4901    4.2469 C.2       5 UNK         0.5055 
     38 O          29.1812   27.9478    5.3529 O.2       5 UNK        -0.5220 
     39 N          28.4529   28.2439    3.2314 N.am      6 UNK        -0.4450 
     40 CA         28.3477   29.7022    3.2526 C.3       6 UNK         0.0367 
     41 CB         26.9484   30.1241    3.7409 C.3       6 UNK        -0.1929 
     42 C          28.7099   30.2790    1.8747 C.2       6 UNK         0.5070 
     43 O          28.0967   31.2521    1.4349 O.2       6 UNK        -0.5237 
     44 N          29.6978   29.6647    1.2038 N.am      7 UNK        -0.4739 
     45 CA         30.2105   30.1033   -0.1017 C.3       7 UNK         0.0276 
     46 CB         31.0706   28.9848   -0.7150 C.3       7 UNK        -0.1927 
     47 C          31.0101   31.4178   -0.0236 C.2       7 UNK         0.5013 
     48 O          31.0816   32.1471   -1.0135 O.2       7 UNK        -0.5193 
     49 N          31.5806   31.6948    1.1517 N.am      8 UNK        -0.4253 
     50 CA         32.3040   32.9027    1.5209 C.3       8 UNK         0.0242 
     51 CB         33.7595   32.8094    1.0255 C.3       8 UNK        -0.2000 
     52 C          32.2484   33.0153    3.0484 C.2       8 UNK         0.4948 
     53 O          31.9338   32.0293    3.7213 O.2       8 UNK        -0.5275 
     54 N          32.6087   34.1900    3.5833 N.am      9 UNK        -0.4246 
     55 CA         32.6973   34.4505    5.0284 C.3       9 UNK         0.0261 
     56 CB         33.0292   35.9330    5.2626 C.3       9 UNK        -0.1959 
     57 C          33.7110   33.5480    5.7601 C.2       9 UNK         0.5033 
     58 O          33.5186   33.2468    6.9389 O.2       9 UNK        -0.5390 
     59 N          34.7438   33.0979    5.0334 N.am      10 UNK        -0.4215 
     60 CA         35.7496   32.1336    5.4814 C.3       10 UNK         0.0240 
     61 CB         36.8707   32.0620    4.4310 C.3       10 UNK        -0.1982 
     62 C          35.1949   30.7239    5.7669 C.2       10 UNK         0.4970 
     63 O          35.8573   29.9674    6.4785 O.2       10 UNK        -0.4916 
     64 N          34.0163   30.3849    5.2227 N.am      11 UNK        -0.4279 
     65 CA         33.3394   29.1007    5.4633 C.3       11 UNK         0.1003 
     66 C          32.6954   28.9726    6.8748 C.2       11 UNK         0.5709 
     67 N          32.5491   30.0474    7.6431 N.am      11 UNK        -0.7358 
     68 O          32.3434   27.8706    7.2882 O.2       11 UNK        -0.4999 
     69 C69        32.3090   28.7581    4.3553 C.3       12 UNK        -0.0954 
     70 S70        32.9809   28.8367    2.6620 S.3       12 UNK        -0.2268 
     71 C71        33.9245   27.2862    2.5414 C.3       12 UNK         0.0203 
     72 H72        30.3922   20.4026   -0.7258 H         1 UNK         0.0888 
     73 H73        30.3731   18.6628   -0.9678 H         1 UNK         0.0888 
     74 H74        29.7100   19.7194   -2.2108 H         1 UNK         0.0888 
     75 H75        26.7486   20.4999    0.0414 H         1 UNK         0.3017 
     76 H76        28.5893   21.8615   -1.7468 H         1 UNK         0.0873 
     77 H77        29.5598   22.1528    0.6046 H         1 UNK         0.0745 
     78 H78        28.0975   22.9427    1.0960 H         1 UNK         0.0745 
     79 H79        31.4411   23.0581   -0.4922 H         1 UNK         0.0705 
     80 H80        31.6520   24.6830   -1.0814 H         1 UNK         0.0705 
     81 H81        32.7394   26.2677    0.3118 H         1 UNK         0.1334 
     82 H82        33.1017   25.6130    4.5343 H         1 UNK         0.1417 
     83 H83        30.8681   22.8641    2.1418 H         1 UNK         0.1562 
     84 H84        31.9981   23.7801    5.5991 H         1 UNK         0.0748 
     85 H85        31.8591   22.3483    4.6055 H         1 UNK         0.0748 
     86 H86        30.2514   25.5839    5.7531 H         1 UNK         0.0940 
     87 H87        28.5605   25.2296    5.9610 H         1 UNK         0.0940 
     88 H88        29.9159   25.9278    3.3073 H         1 UNK         0.0703 
     89 H89        28.1868   25.1229    2.2372 H         1 UNK         0.3081 
     90 H90        25.8819   23.7324    2.4087 H         1 UNK         0.0719 
     91 H91        23.5318   24.5286    2.1400 H         1 UNK         0.0809 
     92 H92        23.9253   26.0128    3.0073 H         1 UNK         0.0809 
     93 H93        23.9944   24.4619    3.8320 H         1 UNK         0.0809 
     94 H94        25.9991   24.6565    0.3990 H         1 UNK         0.2990 
     95 H95        25.3086   27.6205   -1.0423 H         1 UNK         0.0690 
     96 H96        27.6350   28.0058   -1.9308 H         1 UNK         0.0788 
     97 H97        28.2963   27.2193   -0.4966 H         1 UNK         0.0788 
     98 H98        27.3866   28.7179   -0.3485 H         1 UNK         0.0788 
     99 H99        27.0986   25.4001   -1.7425 H         1 UNK         0.2993 
    100 H100       24.5081   23.2537   -2.7797 H         1 UNK         0.0949 
    101 H101       24.6785   24.7311   -4.7896 H         1 UNK         0.0767 
    102 H102       26.4224   24.8317   -4.5894 H         1 UNK         0.0767 
    103 H103       25.6608   23.2894   -4.9829 H         1 UNK         0.0767 
    104 H104       27.3558   23.1279   -3.0409 H         1 UNK         0.3013 
    105 H105       28.1631   27.7964    2.3726 H         1 UNK         0.3121 
    106 H106       29.0858   30.1096    3.9470 H         1 UNK         0.0774 
    107 H107       26.8704   31.2090    3.8205 H         1 UNK         0.0815 
    108 H108       26.1678   29.7880    3.0578 H         1 UNK         0.0815 
    109 H109       26.7312   29.7114    4.7262 H         1 UNK         0.0815 
    110 H110       30.1774   28.8916    1.6428 H         1 UNK         0.2987 
    111 H111       29.3579   30.2804   -0.7609 H         1 UNK         0.0949 
    112 H112       31.9646   28.7892   -0.1232 H         1 UNK         0.0806 
    113 H113       30.5174   28.0504   -0.8028 H         1 UNK         0.0806 
    114 H114       31.4018   29.2580   -1.7177 H         1 UNK         0.0806 
    115 H115       31.4482   31.0546    1.9264 H         1 UNK         0.3010 
    116 H116       31.8082   33.7719    1.0837 H         1 UNK         0.0829 
    117 H117       33.8030   32.7049   -0.0588 H         1 UNK         0.0813 
    118 H118       34.3257   33.7050    1.2832 H         1 UNK         0.0813 
    119 H119       34.2778   31.9541    1.4621 H         1 UNK         0.0813 
    120 H120       32.8514   34.9542    2.9682 H         1 UNK         0.3038 
    121 H121       31.7148   34.2470    5.4599 H         1 UNK         0.0769 
    122 H122       33.0775   36.1577    6.3292 H         1 UNK         0.0811 
    123 H123       32.2682   36.5838    4.8316 H         1 UNK         0.0811 
    124 H124       33.9919   36.2063    4.8285 H         1 UNK         0.0811 
    125 H125       34.8144   33.4105    4.0766 H         1 UNK         0.3204 
    126 H126       36.1753   32.5080    6.4147 H         1 UNK         0.0748 
    127 H127       37.6596   31.3778    4.7471 H         1 UNK         0.0771 
    128 H128       36.4996   31.7079    3.4681 H         1 UNK         0.0771 
    129 H129       37.3344   33.0365    4.2764 H         1 UNK         0.0771 
    130 H130       33.4992   31.0535    4.6633 H         1 UNK         0.2980 
    131 H131       34.1070   28.3259    5.4292 H         1 UNK         0.0545 
    132 H132       32.8461   30.9574    7.3207 H         1 UNK         0.3459 
    133 H133       32.1378   29.9460    8.5571 H         1 UNK         0.3459 
    134 H134       31.4682   29.4512    4.4053 H         1 UNK         0.0616 
    135 H135       31.8861   27.7671    4.5177 H         1 UNK         0.0616 
    136 H136       34.5663   27.3429    1.6610 H         1 UNK         0.0634 
    137 H137       34.5969   27.1965    3.3952 H         1 UNK         0.0634 
@<TRIPOS>BOND
     1    1    2 1    
     2    1   72 1    
     3    1   73 1    
     4    1   74 1    
     5    2    3 2    
     6    2    4 am   BACKBONE|DICT|INTERRES
     7    4    5 1    
     8    4   75 1    
     9    5    6 1    
    10    5   35 1    
    11    5   76 1    
    12    6    7 1    
    13    6   77 1    
    14    6   78 1    
    15    7    8 1    
    16    8    9 1    
    17    8   79 1    
    18    8   80 1    
    19    9   10 ar   
    20    9   14 ar   
    21   10   11 ar   
    22   10   81 1    
    23   11   12 ar   
    24   11   71 1    
    25   12   13 ar   
    26   12   82 1    
    27   13   14 ar   
    28   13   15 1    
    29   14   83 1    
    30   15   16 1    
    31   15   84 1    
    32   15   85 1    
    33   16   17 1    
    34   17   18 1    
    35   17   86 1    
    36   17   87 1    
    37   18   19 1    
    38   18   37 1    
    39   18   88 1    
    40   19   20 am   BACKBONE|DICT|INTERRES
    41   19   89 1    
    42   20   21 2    
    43   20   22 1    
    44   22   23 1    
    45   22   24 1    
    46   22   90 1    
    47   23   91 1    
    48   23   92 1    
    49   23   93 1    
    50   24   25 am   BACKBONE|DICT|INTERRES
    51   24   94 1    
    52   25   26 2    
    53   25   27 1    
    54   27   28 1    
    55   27   29 1    
    56   27   95 1    
    57   28   96 1    
    58   28   97 1    
    59   28   98 1    
    60   29   30 am   BACKBONE|DICT|INTERRES
    61   29   99 1    
    62   30   31 2    
    63   30   32 1    
    64   32   33 1    
    65   32   34 1    
    66   32  100 1    
    67   33  101 1    
    68   33  102 1    
    69   33  103 1    
    70   34   35 am   BACKBONE|DICT|INTERRES
    71   34  104 1    
    72   35   36 2    
    73   37   38 2    
    74   37   39 am   BACKBONE|DICT|INTERRES
    75   39   40 1    
    76   39  105 1    
    77   40   41 1    
    78   40   42 1    
    79   40  106 1    
    80   41  107 1    
    81   41  108 1    
    82   41  109 1    
    83   42   43 2    
    84   42   44 am   BACKBONE|DICT|INTERRES
    85   44   45 1    
    86   44  110 1    
    87   45   46 1    
    88   45   47 1    
    89   45  111 1    
    90   46  112 1    
    91   46  113 1    
    92   46  114 1    
    93   47   48 2    
    94   47   49 am   BACKBONE|DICT|INTERRES
    95   49   50 1    
    96   49  115 1    
    97   50   51 1    
    98   50   52 1    
    99   50  116 1    
   100   51  117 1    
   101   51  118 1    
   102   51  119 1    
   103   52   53 2    
   104   52   54 am   BACKBONE|DICT|INTERRES
   105   54   55 1    
   106   54  120 1    
   107   55   56 1    
   108   55   57 1    
   109   55  121 1    
   110   56  122 1    
   111   56  123 1    
   112   56  124 1    
   113   57   58 2    
   114   57   59 am   BACKBONE|DICT|INTERRES
   115   59   60 1    
   116   59  125 1    
   117   60   61 1    
   118   60   62 1    
   119   60  126 1    
   120   61  127 1    
   121   61  128 1    
   122   61  129 1    
   123   62   63 2    
   124   62   64 am   BACKBONE|DICT|INTERRES
   125   64   65 1    
   126   64  130 1    
   127   65   66 1    
   128   65   69 1    
   129   65  131 1    
   130   66   67 am   BACKBONE|DICT|INTERRES
   131   66   68 2    
   132   67  132 1    
   133   67  133 1    
   134   69   70 1    
   135   69  134 1    
   136   69  135 1    
   137   70   71 1    
   138   71  136 1    
   139   71  137 1    
@<TRIPOS>SUBSTRUCTURE
     1 UNK         1 GROUP             0       ****    0 ROOT    
