@<TRIPOS>MOLECULE
3R136
137   139    1
SMALL
USER_CHARGES


@<TRIPOS>ATOM
      1 CA         26.9147   17.4150   -0.6376 C.3       0 UNK        -0.1979 
      2 C          26.9699   18.9336   -0.5672 C.2       0 UNK         0.4864 
      3 O          26.1135   19.6065   -1.1441 O.2       0 UNK        -0.5359 
      4 N          27.9613   19.4851    0.1461 N.am      1 UNK        -0.4318 
      5 CA         28.1864   20.9240    0.3328 C.3       1 UNK         0.0824 
      6 C6         29.6772   21.2086    0.6517 C.3       12 UNK        -0.0944 
      7 S7         30.1588   22.9427    0.3548 S.3       12 UNK        -0.2672 
      8 C8         31.9609   22.7933    0.5697 C.3       12 UNK         0.0333 
      9 C9         32.6733   24.1394    0.6392 C.ar      12 UNK        -0.0807 
     10 C10        33.5835   24.3927    1.6712 C.ar      12 UNK        -0.0894 
     11 C11        34.3053   25.5896    1.7058 C.ar      12 UNK        -0.0804 
     12 C12        34.0891   26.5526    0.7162 C.ar      12 UNK        -0.0824 
     13 C13        33.1769   26.3174   -0.3161 C.ar      12 UNK        -0.0762 
     14 C14        32.4800   25.1053   -0.3547 C.ar      12 UNK        -0.0782 
     15 C15        32.9884   27.3480   -1.4205 C.3       12 UNK         0.0230 
     16 S16        31.2904   27.9975   -1.4920 S.3       12 UNK        -0.2608 
     17 C17        31.2161   29.0522   -0.0057 C.3       12 UNK        -0.0989 
     18 CA         29.8333   28.9349    0.6863 C.3       5 UNK         0.0716 
     19 N          29.5878   27.6072    1.2532 N.am      5 UNK        -0.4135 
     20 C          30.1163   27.0882    2.3716 C.2       4 UNK         0.5031 
     21 O          30.9887   27.6440    3.0435 O.2       4 UNK        -0.5229 
     22 CA         29.5381   25.7314    2.8331 C.3       4 UNK         0.0329 
     23 CB         29.5554   25.5854    4.3659 C.3       4 UNK        -0.2001 
     24 N          28.1909   25.4265    2.3160 N.am      4 UNK        -0.4303 
     25 C          27.0772   26.1682    2.4645 C.2       3 UNK         0.5044 
     26 O          27.0482   27.2605    3.0305 O.2       3 UNK        -0.5152 
     27 CA         25.7842   25.6293    1.8418 C.3       3 UNK         0.0319 
     28 CB         25.6934   26.0544    0.3622 C.3       3 UNK        -0.2001 
     29 N          25.6972   24.1764    1.9809 N.am      3 UNK        -0.4354 
     30 C          24.6148   23.4214    1.7655 C.2       2 UNK         0.4964 
     31 O          23.5209   23.8752    1.4242 O.2       2 UNK        -0.5047 
     32 CA         24.8029   21.8998    1.9447 C.3       2 UNK         0.0288 
     33 CB         23.5264   21.0983    1.6260 C.3       2 UNK        -0.2113 
     34 N          25.9007   21.3807    1.1223 N.am      2 UNK        -0.4145 
     35 C          27.2087   21.5200    1.3742 C.2       1 UNK         0.5006 
     36 O          27.6348   22.1031    2.3747 O.2       1 UNK        -0.5103 
     37 C          29.5587   30.0573    1.7113 C.2       5 UNK         0.5055 
     38 O          30.3946   30.9446    1.8866 O.2       5 UNK        -0.5220 
     39 N          28.3883   30.0054    2.3693 N.am      6 UNK        -0.4450 
     40 CA         27.9120   30.9706    3.3736 C.3       6 UNK         0.0367 
     41 CB         26.5120   30.5542    3.8515 C.3       6 UNK        -0.1929 
     42 C          27.9013   32.4440    2.9233 C.2       6 UNK         0.5070 
     43 O          28.0376   33.3328    3.7635 O.2       6 UNK        -0.5237 
     44 N          27.7566   32.6781    1.6131 N.am      7 UNK        -0.4739 
     45 CA         27.8170   34.0011    0.9881 C.3       7 UNK         0.0276 
     46 CB         27.1124   33.9291   -0.3776 C.3       7 UNK        -0.1927 
     47 C          29.2486   34.5535    0.8264 C.2       7 UNK         0.5013 
     48 O          29.3878   35.7256    0.4725 O.2       7 UNK        -0.5193 
     49 N          30.2764   33.7228    1.0495 N.am      8 UNK        -0.4253 
     50 CA         31.6832   34.0610    0.8551 C.3       8 UNK         0.0242 
     51 CB         32.1475   33.5538   -0.5268 C.3       8 UNK        -0.2000 
     52 C          32.5109   33.5187    2.0287 C.2       8 UNK         0.4948 
     53 O          32.6196   34.2001    3.0486 O.2       8 UNK        -0.5275 
     54 N          33.1007   32.3272    1.8558 N.am      9 UNK        -0.4246 
     55 CA         34.0187   31.6836    2.7996 C.3       9 UNK         0.0261 
     56 CB         34.6283   30.4342    2.1420 C.3       9 UNK        -0.1959 
     57 C          33.3917   31.3182    4.1565 C.2       9 UNK         0.5033 
     58 O          34.0746   31.4486    5.1736 O.2       9 UNK        -0.5390 
     59 N          32.1251   30.8725    4.1409 N.am      10 UNK        -0.4215 
     60 CA         31.3167   30.4298    5.2854 C.3       10 UNK         0.0240 
     61 CB         30.8379   31.6493    6.0995 C.3       10 UNK        -0.1982 
     62 C          32.0218   29.3649    6.1463 C.2       10 UNK         0.4970 
     63 O          32.2714   29.5860    7.3339 O.2       10 UNK        -0.4916 
     64 N          32.3634   28.2434    5.5054 N.am      11 UNK        -0.4279 
     65 CA         33.1048   27.1245    6.1003 C.3       11 UNK         0.1003 
     66 C          32.2908   26.3242    7.1567 C.2       11 UNK         0.5709 
     67 N          32.9594   25.4987    7.9512 N.am      11 UNK        -0.7358 
     68 O          31.0699   26.4258    7.2622 O.2       11 UNK        -0.4999 
     69 C69        33.6942   26.2077    4.9973 C.3       12 UNK        -0.0954 
     70 S70        34.8889   27.1088    3.9580 S.3       12 UNK        -0.2268 
     71 C71        35.3674   25.8204    2.7715 C.3       12 UNK         0.0203 
     72 H72        26.9782   17.0857   -1.6744 H         1 UNK         0.0888 
     73 H73        27.7306   16.9509   -0.0839 H         1 UNK         0.0888 
     74 H74        25.9741   17.0545   -0.2221 H         1 UNK         0.0888 
     75 H75        28.6127   18.8795    0.6256 H         1 UNK         0.3017 
     76 H76        27.9605   21.4139   -0.6173 H         1 UNK         0.0873 
     77 H77        30.3112   20.5894    0.0144 H         1 UNK         0.0745 
     78 H78        29.9235   20.9324    1.6790 H         1 UNK         0.0745 
     79 H79        32.1558   22.2163    1.4753 H         1 UNK         0.0705 
     80 H80        32.3730   22.2175   -0.2600 H         1 UNK         0.0705 
     81 H81        33.7578   23.6432    2.4311 H         1 UNK         0.1334 
     82 H82        34.6516   27.4758    0.7418 H         1 UNK         0.1417 
     83 H83        31.7905   24.9116   -1.1653 H         1 UNK         0.1562 
     84 H84        33.2243   26.8820   -2.3782 H         1 UNK         0.0748 
     85 H85        33.6847   28.1806   -1.3072 H         1 UNK         0.0748 
     86 H86        31.4096   30.0755   -0.3306 H         1 UNK         0.0940 
     87 H87        32.0143   28.7900    0.6898 H         1 UNK         0.0940 
     88 H88        29.0726   29.0755   -0.0834 H         1 UNK         0.0703 
     89 H89        28.8970   27.0520    0.7718 H         1 UNK         0.3081 
     90 H90        30.2074   24.9732    2.4274 H         1 UNK         0.0719 
     91 H91        30.5746   25.6270    4.7453 H         1 UNK         0.0809 
     92 H92        28.9924   26.3807    4.8558 H         1 UNK         0.0809 
     93 H93        29.1358   24.6301    4.6807 H         1 UNK         0.0809 
     94 H94        28.1307   24.5658    1.7892 H         1 UNK         0.2990 
     95 H95        24.9494   26.0735    2.3881 H         1 UNK         0.0690 
     96 H96        24.7254   25.8008   -0.0698 H         1 UNK         0.0788 
     97 H97        26.4637   25.5759   -0.2437 H         1 UNK         0.0788 
     98 H98        25.8144   27.1335    0.2564 H         1 UNK         0.0788 
     99 H99        26.5299   23.6960    2.3114 H         1 UNK         0.2993 
    100 H100       25.0465   21.7311    2.9961 H         1 UNK         0.0949 
    101 H101       23.6709   20.0335    1.8106 H         1 UNK         0.0767 
    102 H102       22.6929   21.4231    2.2504 H         1 UNK         0.0767 
    103 H103       23.2237   21.2197    0.5851 H         1 UNK         0.0767 
    104 H104       25.6459   20.8864    0.2714 H         1 UNK         0.3013 
    105 H105       27.8014   29.1900    2.2354 H         1 UNK         0.3121 
    106 H106       28.5813   30.9145    4.2297 H         1 UNK         0.0774 
    107 H107       26.1227   31.2580    4.5887 H         1 UNK         0.0815 
    108 H108       25.7986   30.5159    3.0275 H         1 UNK         0.0815 
    109 H109       26.5307   29.5734    4.3267 H         1 UNK         0.0815 
    110 H110       27.6403   31.8871    0.9968 H         1 UNK         0.2987 
    111 H111       27.2705   34.7078    1.6168 H         1 UNK         0.0949 
    112 H112       27.6174   33.2413   -1.0570 H         1 UNK         0.0806 
    113 H113       26.0774   33.6025   -0.2744 H         1 UNK         0.0806 
    114 H114       27.0930   34.9072   -0.8605 H         1 UNK         0.0806 
    115 H115       30.0938   32.7827    1.3914 H         1 UNK         0.3010 
    116 H116       31.8139   35.1453    0.8729 H         1 UNK         0.0829 
    117 H117       31.6389   34.0925   -1.3266 H         1 UNK         0.0813 
    118 H118       33.2179   33.7117   -0.6671 H         1 UNK         0.0813 
    119 H119       31.9424   32.4927   -0.6689 H         1 UNK         0.0813 
    120 H120       32.9231   31.8351    0.9934 H         1 UNK         0.3038 
    121 H121       34.8272   32.3915    2.9944 H         1 UNK         0.0769 
    122 H122       35.3759   29.9806    2.7943 H         1 UNK         0.0811 
    123 H123       35.1253   30.6759    1.2025 H         1 UNK         0.0811 
    124 H124       33.8728   29.6740    1.9417 H         1 UNK         0.0811 
    125 H125       31.6514   30.8375    3.2399 H         1 UNK         0.3204 
    126 H126       30.4425   29.9316    4.8685 H         1 UNK         0.0748 
    127 H127       30.1686   31.3442    6.9047 H         1 UNK         0.0771 
    128 H128       31.6737   32.1841    6.5522 H         1 UNK         0.0771 
    129 H129       30.2927   32.3549    5.4721 H         1 UNK         0.0771 
    130 H130       32.0573   28.1113    4.5442 H         1 UNK         0.2980 
    131 H131       33.9426   27.5641    6.6455 H         1 UNK         0.0545 
    132 H132       33.9605   25.4024    7.8821 H         1 UNK         0.3459 
    133 H133       32.4515   24.9669    8.6406 H         1 UNK         0.3459 
    134 H134       32.9036   25.8065    4.3616 H         1 UNK         0.0616 
    135 H135       34.2111   25.3512    5.4331 H         1 UNK         0.0616 
    136 H136       35.5944   24.8980    3.3084 H         1 UNK         0.0634 
    137 H137       36.2952   26.1248    2.2853 H         1 UNK         0.0634 
@<TRIPOS>BOND
     1    1    2 1    
     2    1   72 1    
     3    1   73 1    
     4    1   74 1    
     5    2    3 2    
     6    2    4 am   BACKBONE|DICT|INTERRES
     7    4    5 1    
     8    4   75 1    
     9    5    6 1    
    10    5   35 1    
    11    5   76 1    
    12    6    7 1    
    13    6   77 1    
    14    6   78 1    
    15    7    8 1    
    16    8    9 1    
    17    8   79 1    
    18    8   80 1    
    19    9   10 ar   
    20    9   14 ar   
    21   10   11 ar   
    22   10   81 1    
    23   11   12 ar   
    24   11   71 1    
    25   12   13 ar   
    26   12   82 1    
    27   13   14 ar   
    28   13   15 1    
    29   14   83 1    
    30   15   16 1    
    31   15   84 1    
    32   15   85 1    
    33   16   17 1    
    34   17   18 1    
    35   17   86 1    
    36   17   87 1    
    37   18   19 1    
    38   18   37 1    
    39   18   88 1    
    40   19   20 am   BACKBONE|DICT|INTERRES
    41   19   89 1    
    42   20   21 2    
    43   20   22 1    
    44   22   23 1    
    45   22   24 1    
    46   22   90 1    
    47   23   91 1    
    48   23   92 1    
    49   23   93 1    
    50   24   25 am   BACKBONE|DICT|INTERRES
    51   24   94 1    
    52   25   26 2    
    53   25   27 1    
    54   27   28 1    
    55   27   29 1    
    56   27   95 1    
    57   28   96 1    
    58   28   97 1    
    59   28   98 1    
    60   29   30 am   BACKBONE|DICT|INTERRES
    61   29   99 1    
    62   30   31 2    
    63   30   32 1    
    64   32   33 1    
    65   32   34 1    
    66   32  100 1    
    67   33  101 1    
    68   33  102 1    
    69   33  103 1    
    70   34   35 am   BACKBONE|DICT|INTERRES
    71   34  104 1    
    72   35   36 2    
    73   37   38 2    
    74   37   39 am   BACKBONE|DICT|INTERRES
    75   39   40 1    
    76   39  105 1    
    77   40   41 1    
    78   40   42 1    
    79   40  106 1    
    80   41  107 1    
    81   41  108 1    
    82   41  109 1    
    83   42   43 2    
    84   42   44 am   BACKBONE|DICT|INTERRES
    85   44   45 1    
    86   44  110 1    
    87   45   46 1    
    88   45   47 1    
    89   45  111 1    
    90   46  112 1    
    91   46  113 1    
    92   46  114 1    
    93   47   48 2    
    94   47   49 am   BACKBONE|DICT|INTERRES
    95   49   50 1    
    96   49  115 1    
    97   50   51 1    
    98   50   52 1    
    99   50  116 1    
   100   51  117 1    
   101   51  118 1    
   102   51  119 1    
   103   52   53 2    
   104   52   54 am   BACKBONE|DICT|INTERRES
   105   54   55 1    
   106   54  120 1    
   107   55   56 1    
   108   55   57 1    
   109   55  121 1    
   110   56  122 1    
   111   56  123 1    
   112   56  124 1    
   113   57   58 2    
   114   57   59 am   BACKBONE|DICT|INTERRES
   115   59   60 1    
   116   59  125 1    
   117   60   61 1    
   118   60   62 1    
   119   60  126 1    
   120   61  127 1    
   121   61  128 1    
   122   61  129 1    
   123   62   63 2    
   124   62   64 am   BACKBONE|DICT|INTERRES
   125   64   65 1    
   126   64  130 1    
   127   65   66 1    
   128   65   69 1    
   129   65  131 1    
   130   66   67 am   BACKBONE|DICT|INTERRES
   131   66   68 2    
   132   67  132 1    
   133   67  133 1    
   134   69   70 1    
   135   69  134 1    
   136   69  135 1    
   137   70   71 1    
   138   71  136 1    
   139   71  137 1    
@<TRIPOS>SUBSTRUCTURE
     1 UNK         1 GROUP             0       ****    0 ROOT    
