@<TRIPOS>MOLECULE
3R136
137   139    1
SMALL
USER_CHARGES


@<TRIPOS>ATOM
      1 CA         32.9277   20.7531   -0.7555 C.3       0 UNK        -0.1979 
      2 C          32.6098   22.0775   -1.4336 C.2       0 UNK         0.4864 
      3 O          33.5255   22.7820   -1.8609 O.2       0 UNK        -0.5359 
      4 N          31.3218   22.4187   -1.5349 N.am      1 UNK        -0.4318 
      5 CA         30.8051   23.6344   -2.1586 C.3       1 UNK         0.0824 
      6 C6         31.0115   24.9009   -1.2771 C.3       12 UNK        -0.0944 
      7 S7         29.9844   24.9963    0.2325 S.3       12 UNK        -0.2672 
      8 C8         31.0028   24.0774    1.4321 C.3       12 UNK         0.0333 
      9 C9         30.4820   24.2471    2.8522 C.ar      12 UNK        -0.0807 
     10 C10        31.2950   24.8103    3.8403 C.ar      12 UNK        -0.0894 
     11 C11        30.8054   25.0113    5.1341 C.ar      12 UNK        -0.0804 
     12 C12        29.4985   24.6271    5.4452 C.ar      12 UNK        -0.0824 
     13 C13        28.6797   24.0545    4.4680 C.ar      12 UNK        -0.0762 
     14 C14        29.1809   23.8532    3.1787 C.ar      12 UNK        -0.0782 
     15 C15        27.2394   23.6908    4.7884 C.3       12 UNK         0.0230 
     16 S16        26.0760   24.8302    3.9749 S.3       12 UNK        -0.2608 
     17 C17        26.4113   26.4095    4.8344 C.3       12 UNK        -0.0989 
     18 CA         27.4119   27.3352    4.0879 C.3       5 UNK         0.0716 
     19 N          27.0572   27.5018    2.6782 N.am      5 UNK        -0.4135 
     20 C          27.7090   28.2010    1.7398 C.2       4 UNK         0.5031 
     21 O          28.6739   28.9397    1.9608 O.2       4 UNK        -0.5229 
     22 CA         27.1973   28.0229    0.2965 C.3       4 UNK         0.0329 
     23 CB         28.1675   28.6014   -0.7471 C.3       4 UNK        -0.2001 
     24 N          26.9525   26.6143   -0.0263 N.am      4 UNK        -0.4303 
     25 C          25.8271   25.9389    0.2409 C.2       3 UNK         0.5044 
     26 O          24.8714   26.4397    0.8360 O.2       3 UNK        -0.5152 
     27 CA         25.7779   24.4598   -0.1971 C.3       3 UNK         0.0319 
     28 CB         24.3363   23.9218   -0.3105 C.3       3 UNK        -0.2001 
     29 N          26.5312   24.1776   -1.4271 N.am      3 UNK        -0.4354 
     30 C          26.3685   24.7289   -2.6400 C.2       2 UNK         0.4964 
     31 O          25.5167   25.5819   -2.8949 O.2       2 UNK        -0.5047 
     32 CA         27.3387   24.2572   -3.7470 C.3       2 UNK         0.0288 
     33 CB         27.1958   25.0716   -5.0474 C.3       2 UNK        -0.2113 
     34 N          28.7440   24.2922   -3.3224 N.am      2 UNK        -0.4145 
     35 C          29.3346   23.3823   -2.5366 C.2       1 UNK         0.5006 
     36 O          28.7443   22.3959   -2.0819 O.2       1 UNK        -0.5103 
     37 C          27.5456   28.6923    4.8035 C.2       5 UNK         0.5055 
     38 O          26.5308   29.3409    5.0669 O.2       5 UNK        -0.5220 
     39 N          28.7951   29.0998    5.0674 N.am      6 UNK        -0.4450 
     40 CA         29.2156   30.3738    5.6654 C.3       6 UNK         0.0367 
     41 CB         28.7564   30.4650    7.1358 C.3       6 UNK        -0.1929 
     42 C          28.8301   31.6223    4.8418 C.2       6 UNK         0.5070 
     43 O          28.8160   32.7259    5.3901 O.2       6 UNK        -0.5237 
     44 N          28.5337   31.4373    3.5487 N.am      7 UNK        -0.4739 
     45 CA         28.2375   32.4970    2.5906 C.3       7 UNK         0.0276 
     46 CB         26.9915   32.1117    1.7672 C.3       7 UNK        -0.1927 
     47 C          29.4959   32.7187    1.7438 C.2       7 UNK         0.5013 
     48 O          30.3585   33.5021    2.1426 O.2       7 UNK        -0.5193 
     49 N          29.5972   32.0118    0.6099 N.am      8 UNK        -0.4253 
     50 CA         30.7892   32.0028   -0.2410 C.3       8 UNK         0.0242 
     51 CB         30.4161   31.5606   -1.6657 C.3       8 UNK        -0.2000 
     52 C          31.9077   31.1126    0.3272 C.2       8 UNK         0.4948 
     53 O          33.0765   31.3723    0.0369 O.2       8 UNK        -0.5275 
     54 N          31.5489   30.0858    1.1136 N.am      9 UNK        -0.4246 
     55 CA         32.5041   29.2142    1.7932 C.3       9 UNK         0.0261 
     56 CB         31.8058   27.9139    2.2144 C.3       9 UNK        -0.1959 
     57 C          33.1077   29.9263    3.0124 C.2       9 UNK         0.5033 
     58 O          32.3627   30.4060    3.8709 O.2       9 UNK        -0.5390 
     59 N          34.4434   29.9554    3.0862 N.am      10 UNK        -0.4215 
     60 CA         35.2120   30.5342    4.1901 C.3       10 UNK         0.0240 
     61 CB         36.5871   30.9840    3.6604 C.3       10 UNK        -0.1982 
     62 C          35.3213   29.5371    5.3582 C.2       10 UNK         0.4970 
     63 O          36.4110   29.0368    5.6445 O.2       10 UNK        -0.4916 
     64 N          34.1754   29.2348    5.9772 N.am      11 UNK        -0.4279 
     65 CA         34.0325   28.3020    7.1043 C.3       11 UNK         0.1003 
     66 C          34.8112   28.7516    8.3715 C.2       11 UNK         0.5709 
     67 N          35.3444   27.8105    9.1390 N.am      11 UNK        -0.7358 
     68 O          34.8981   29.9376    8.6863 O.2       11 UNK        -0.4999 
     69 C69        32.5424   28.0475    7.4482 C.3       12 UNK        -0.0954 
     70 S70        31.5677   27.4850    6.0160 S.3       12 UNK        -0.2268 
     71 C71        31.6742   25.6813    6.1844 C.3       12 UNK         0.0203 
     72 H72        32.0257   20.2381   -0.4250 H         1 UNK         0.0888 
     73 H73        33.4602   20.0970   -1.4436 H         1 UNK         0.0888 
     74 H74        33.5604   20.9205    0.1157 H         1 UNK         0.0888 
     75 H75        30.5889   21.7915   -1.2242 H         1 UNK         0.3017 
     76 H76        31.3462   23.7761   -3.0969 H         1 UNK         0.0873 
     77 H77        32.0618   25.0010   -0.9996 H         1 UNK         0.0745 
     78 H78        30.7939   25.7925   -1.8671 H         1 UNK         0.0745 
     79 H79        32.0371   24.4167    1.3590 H         1 UNK         0.0705 
     80 H80        31.0001   23.0175    1.1776 H         1 UNK         0.0705 
     81 H81        32.3046   25.1135    3.6013 H         1 UNK         0.1334 
     82 H82        29.1120   24.7979    6.4408 H         1 UNK         0.1417 
     83 H83        28.5439   23.4240    2.4171 H         1 UNK         0.1562 
     84 H84        27.0608   23.6920    5.8649 H         1 UNK         0.0748 
     85 H85        27.0390   22.6748    4.4452 H         1 UNK         0.0748 
     86 H86        26.7679   26.2010    5.8448 H         1 UNK         0.0940 
     87 H87        25.4491   26.9111    4.9571 H         1 UNK         0.0940 
     88 H88        28.3896   26.8511    4.0962 H         1 UNK         0.0703 
     89 H89        26.2536   26.9658    2.3738 H         1 UNK         0.3081 
     90 H90        26.2579   28.5742    0.2177 H         1 UNK         0.0719 
     91 H91        29.1644   28.1661   -0.6595 H         1 UNK         0.0809 
     92 H92        27.8114   28.4271   -1.7627 H         1 UNK         0.0809 
     93 H93        28.2613   29.6785   -0.6221 H         1 UNK         0.0809 
     94 H94        27.7211   26.1109   -0.4471 H         1 UNK         0.2990 
     95 H95        26.2759   23.9004    0.5965 H         1 UNK         0.0690 
     96 H96        24.3265   22.8692   -0.5933 H         1 UNK         0.0788 
     97 H97        23.7566   24.4744   -1.0506 H         1 UNK         0.0788 
     98 H98        23.8113   24.0039    0.6422 H         1 UNK         0.0788 
     99 H99        27.2643   23.4787   -1.3452 H         1 UNK         0.2993 
    100 H100       27.0702   23.2233   -3.9761 H         1 UNK         0.0949 
    101 H101       26.1770   25.0180   -5.4342 H         1 UNK         0.0767 
    102 H102       27.4314   26.1253   -4.8918 H         1 UNK         0.0767 
    103 H103       27.8545   24.6913   -5.8285 H         1 UNK         0.0767 
    104 H104       29.2810   25.0906   -3.6294 H         1 UNK         0.3013 
    105 H105       29.5585   28.4965    4.7899 H         1 UNK         0.3121 
    106 H106       30.3061   30.3537    5.6677 H         1 UNK         0.0774 
    107 H107       29.1905   31.3354    7.6290 H         1 UNK         0.0815 
    108 H108       27.6727   30.5526    7.2167 H         1 UNK         0.0815 
    109 H109       29.0676   29.5869    7.7019 H         1 UNK         0.0815 
    110 H110       28.6066   30.4974    3.1693 H         1 UNK         0.2987 
    111 H111       28.0208   33.4358    3.1052 H         1 UNK         0.0949 
    112 H112       26.7871   32.8547    0.9949 H         1 UNK         0.0806 
    113 H113       27.0904   31.1430    1.2792 H         1 UNK         0.0806 
    114 H114       26.1088   32.0628    2.4053 H         1 UNK         0.0806 
    115 H115       28.8449   31.3879    0.3609 H         1 UNK         0.3010 
    116 H116       31.1773   33.0224   -0.3001 H         1 UNK         0.0829 
    117 H117       29.5905   32.1494   -2.0660 H         1 UNK         0.0813 
    118 H118       31.2627   31.6924   -2.3409 H         1 UNK         0.0813 
    119 H119       30.1375   30.5083   -1.7094 H         1 UNK         0.0813 
    120 H120       30.5718   29.9408    1.3367 H         1 UNK         0.3038 
    121 H121       33.2994   28.9560    1.0904 H         1 UNK         0.0769 
    122 H122       32.5208   27.2266    2.6651 H         1 UNK         0.0811 
    123 H123       31.3570   27.4077    1.3604 H         1 UNK         0.0811 
    124 H124       31.0191   28.0920    2.9477 H         1 UNK         0.0811 
    125 H125       34.9791   29.5135    2.3527 H         1 UNK         0.3204 
    126 H126       34.6951   31.4214    4.5629 H         1 UNK         0.0748 
    127 H127       37.1825   31.4352    4.4553 H         1 UNK         0.0771 
    128 H128       37.1610   30.1490    3.2563 H         1 UNK         0.0771 
    129 H129       36.4825   31.7308    2.8730 H         1 UNK         0.0771 
    130 H130       33.3220   29.6602    5.6348 H         1 UNK         0.2980 
    131 H131       34.4633   27.3545    6.7746 H         1 UNK         0.0545 
    132 H132       35.2688   26.8345    8.8981 H         1 UNK         0.3459 
    133 H133       35.8397   28.0827    9.9737 H         1 UNK         0.3459 
    134 H134       32.0787   28.9627    7.8214 H         1 UNK         0.0616 
    135 H135       32.4500   27.3128    8.2500 H         1 UNK         0.0616 
    136 H136       32.7126   25.3648    6.0755 H         1 UNK         0.0634 
    137 H137       31.3569   25.3855    7.1855 H         1 UNK         0.0634 
@<TRIPOS>BOND
     1    1    2 1    
     2    1   72 1    
     3    1   73 1    
     4    1   74 1    
     5    2    3 2    
     6    2    4 am   BACKBONE|DICT|INTERRES
     7    4    5 1    
     8    4   75 1    
     9    5    6 1    
    10    5   35 1    
    11    5   76 1    
    12    6    7 1    
    13    6   77 1    
    14    6   78 1    
    15    7    8 1    
    16    8    9 1    
    17    8   79 1    
    18    8   80 1    
    19    9   10 ar   
    20    9   14 ar   
    21   10   11 ar   
    22   10   81 1    
    23   11   12 ar   
    24   11   71 1    
    25   12   13 ar   
    26   12   82 1    
    27   13   14 ar   
    28   13   15 1    
    29   14   83 1    
    30   15   16 1    
    31   15   84 1    
    32   15   85 1    
    33   16   17 1    
    34   17   18 1    
    35   17   86 1    
    36   17   87 1    
    37   18   19 1    
    38   18   37 1    
    39   18   88 1    
    40   19   20 am   BACKBONE|DICT|INTERRES
    41   19   89 1    
    42   20   21 2    
    43   20   22 1    
    44   22   23 1    
    45   22   24 1    
    46   22   90 1    
    47   23   91 1    
    48   23   92 1    
    49   23   93 1    
    50   24   25 am   BACKBONE|DICT|INTERRES
    51   24   94 1    
    52   25   26 2    
    53   25   27 1    
    54   27   28 1    
    55   27   29 1    
    56   27   95 1    
    57   28   96 1    
    58   28   97 1    
    59   28   98 1    
    60   29   30 am   BACKBONE|DICT|INTERRES
    61   29   99 1    
    62   30   31 2    
    63   30   32 1    
    64   32   33 1    
    65   32   34 1    
    66   32  100 1    
    67   33  101 1    
    68   33  102 1    
    69   33  103 1    
    70   34   35 am   BACKBONE|DICT|INTERRES
    71   34  104 1    
    72   35   36 2    
    73   37   38 2    
    74   37   39 am   BACKBONE|DICT|INTERRES
    75   39   40 1    
    76   39  105 1    
    77   40   41 1    
    78   40   42 1    
    79   40  106 1    
    80   41  107 1    
    81   41  108 1    
    82   41  109 1    
    83   42   43 2    
    84   42   44 am   BACKBONE|DICT|INTERRES
    85   44   45 1    
    86   44  110 1    
    87   45   46 1    
    88   45   47 1    
    89   45  111 1    
    90   46  112 1    
    91   46  113 1    
    92   46  114 1    
    93   47   48 2    
    94   47   49 am   BACKBONE|DICT|INTERRES
    95   49   50 1    
    96   49  115 1    
    97   50   51 1    
    98   50   52 1    
    99   50  116 1    
   100   51  117 1    
   101   51  118 1    
   102   51  119 1    
   103   52   53 2    
   104   52   54 am   BACKBONE|DICT|INTERRES
   105   54   55 1    
   106   54  120 1    
   107   55   56 1    
   108   55   57 1    
   109   55  121 1    
   110   56  122 1    
   111   56  123 1    
   112   56  124 1    
   113   57   58 2    
   114   57   59 am   BACKBONE|DICT|INTERRES
   115   59   60 1    
   116   59  125 1    
   117   60   61 1    
   118   60   62 1    
   119   60  126 1    
   120   61  127 1    
   121   61  128 1    
   122   61  129 1    
   123   62   63 2    
   124   62   64 am   BACKBONE|DICT|INTERRES
   125   64   65 1    
   126   64  130 1    
   127   65   66 1    
   128   65   69 1    
   129   65  131 1    
   130   66   67 am   BACKBONE|DICT|INTERRES
   131   66   68 2    
   132   67  132 1    
   133   67  133 1    
   134   69   70 1    
   135   69  134 1    
   136   69  135 1    
   137   70   71 1    
   138   71  136 1    
   139   71  137 1    
@<TRIPOS>SUBSTRUCTURE
     1 UNK         1 GROUP             0       ****    0 ROOT    
