@<TRIPOS>MOLECULE
3R136
137   139    1
SMALL
USER_CHARGES


@<TRIPOS>ATOM
      1 CA         29.0201   22.7836    3.7725 C.3       0 UNK        -0.1979 
      2 C          29.1172   22.2856    2.3387 C.2       0 UNK         0.4864 
      3 O          28.4737   21.2945    1.9914 O.2       0 UNK        -0.5359 
      4 N          29.9184   22.9622    1.5048 N.am      1 UNK        -0.4318 
      5 CA         30.1561   22.6099    0.0983 C.3       1 UNK         0.0824 
      6 C6         31.4187   23.3049   -0.4726 C.3       12 UNK        -0.0944 
      7 S7         32.9559   22.7478    0.3412 S.3       12 UNK        -0.2672 
      8 C8         33.6601   24.3027    0.9749 C.3       12 UNK         0.0333 
      9 C9         32.9916   24.7305    2.2712 C.ar      12 UNK        -0.0807 
     10 C10        33.4707   24.2596    3.4980 C.ar      12 UNK        -0.0894 
     11 C11        32.8658   24.6594    4.6935 C.ar      12 UNK        -0.0804 
     12 C12        31.7547   25.5047    4.6535 C.ar      12 UNK        -0.0824 
     13 C13        31.2692   25.9812    3.4341 C.ar      12 UNK        -0.0762 
     14 C14        31.9048   25.6077    2.2470 C.ar      12 UNK        -0.0782 
     15 C15        30.0791   26.9235    3.4123 C.3       12 UNK         0.0230 
     16 S16        28.6754   26.2334    2.4833 S.3       12 UNK        -0.2608 
     17 C17        28.8130   27.0909    0.8703 C.3       12 UNK        -0.0989 
     18 CA         27.7313   28.1888    0.6511 C.3       5 UNK         0.0716 
     19 N          26.3960   27.6792    0.9828 N.am      5 UNK        -0.4135 
     20 C          25.2193   28.1575    0.5715 C.2       4 UNK         0.5031 
     21 O          25.0949   29.1312   -0.1751 O.2       4 UNK        -0.5229 
     22 CA         23.9726   27.4671    1.1329 C.3       4 UNK         0.0329 
     23 CB         23.2853   28.3755    2.1659 C.3       4 UNK        -0.2001 
     24 N          23.0459   27.2102    0.0315 N.am      4 UNK        -0.4303 
     25 C          22.6768   26.0414   -0.5121 C.2       3 UNK         0.5044 
     26 O          21.9717   26.0143   -1.5207 O.2       3 UNK        -0.5152 
     27 CA         23.1615   24.6997    0.0765 C.3       3 UNK         0.0319 
     28 CB         22.1055   23.5908   -0.0974 C.3       3 UNK        -0.2001 
     29 N          24.3720   24.3015   -0.6381 N.am      3 UNK        -0.4354 
     30 C          25.6127   24.3135   -0.1400 C.2       2 UNK         0.4964 
     31 O          25.8953   24.6240    1.0197 O.2       2 UNK        -0.5047 
     32 CA         26.7288   23.9515   -1.1251 C.3       2 UNK         0.0288 
     33 CB         26.9693   25.0937   -2.1327 C.3       2 UNK        -0.2113 
     34 N          27.9579   23.6600   -0.3883 N.am      2 UNK        -0.4145 
     35 C          28.9388   22.8573   -0.8236 C.2       1 UNK         0.5006 
     36 O          28.9160   22.3086   -1.9275 O.2       1 UNK        -0.5103 
     37 C          28.0658   29.5243    1.3630 C.2       5 UNK         0.5055 
     38 O          29.1754   29.6861    1.8674 O.2       5 UNK        -0.5220 
     39 N          27.1225   30.4765    1.3887 N.am      6 UNK        -0.4450 
     40 CA         27.2012   31.7447    2.1288 C.3       6 UNK         0.0367 
     41 CB         25.9034   32.5378    1.9099 C.3       6 UNK        -0.1929 
     42 C          28.4289   32.6182    1.8027 C.2       6 UNK         0.5070 
     43 O          28.9222   33.3223    2.6836 O.2       6 UNK        -0.5237 
     44 N          28.9215   32.5316    0.5604 N.am      7 UNK        -0.4739 
     45 CA         30.1320   33.2106    0.0902 C.3       7 UNK         0.0276 
     46 CB         30.1128   33.2419   -1.4472 C.3       7 UNK        -0.1927 
     47 C          31.4463   32.5808    0.5967 C.2       7 UNK         0.5013 
     48 O          32.4909   33.2221    0.4753 O.2       7 UNK        -0.5193 
     49 N          31.3906   31.3526    1.1305 N.am      8 UNK        -0.4253 
     50 CA         32.5423   30.5727    1.5908 C.3       8 UNK         0.0242 
     51 CB         32.7928   29.4192    0.6003 C.3       8 UNK        -0.2000 
     52 C          32.3364   30.0576    3.0250 C.2       8 UNK         0.4948 
     53 O          32.9317   29.0453    3.3935 O.2       8 UNK        -0.5275 
     54 N          31.5088   30.7537    3.8200 N.am      9 UNK        -0.4246 
     55 CA         31.0653   30.3580    5.1650 C.3       9 UNK         0.0261 
     56 CB         30.0688   31.4051    5.6875 C.3       9 UNK        -0.1959 
     57 C          32.1842   30.1109    6.1983 C.2       9 UNK         0.5033 
     58 O          31.9499   29.4015    7.1772 O.2       9 UNK        -0.5390 
     59 N          33.3743   30.6784    5.9619 N.am      10 UNK        -0.4215 
     60 CA         34.5914   30.4571    6.7479 C.3       10 UNK         0.0240 
     61 CB         35.5315   31.6578    6.5393 C.3       10 UNK        -0.1982 
     62 C          35.3177   29.1324    6.4232 C.2       10 UNK         0.4970 
     63 O          36.3326   28.8508    7.0618 O.2       10 UNK        -0.4916 
     64 N          34.8236   28.3675    5.4386 N.am      11 UNK        -0.4279 
     65 CA         35.4088   27.1267    4.8989 C.3       11 UNK         0.1003 
     66 C          36.6642   27.3518    4.0034 C.2       11 UNK         0.5709 
     67 N          36.9579   28.5714    3.5668 N.am      11 UNK        -0.7358 
     68 O          37.3730   26.4046    3.6704 O.2       11 UNK        -0.4999 
     69 C69        35.6220   25.9926    5.9502 C.3       12 UNK        -0.0954 
     70 S70        34.1468   25.6067    6.9544 S.3       12 UNK        -0.2268 
     71 C71        33.4223   24.2094    6.0351 C.3       12 UNK         0.0203 
     72 H72        28.0474   23.2440    3.9437 H         1 UNK         0.0888 
     73 H73        29.1360   21.9545    4.4699 H         1 UNK         0.0888 
     74 H74        29.7896   23.5205    3.9971 H         1 UNK         0.0888 
     75 H75        30.4415   23.7531    1.8551 H         1 UNK         0.3017 
     76 H76        30.3337   21.5325    0.0649 H         1 UNK         0.0873 
     77 H77        31.3229   24.3895   -0.4111 H         1 UNK         0.0745 
     78 H78        31.5332   23.0781   -1.5347 H         1 UNK         0.0745 
     79 H79        33.5803   25.0856    0.2189 H         1 UNK         0.0705 
     80 H80        34.7280   24.1580    1.1458 H         1 UNK         0.0705 
     81 H81        34.3251   23.5969    3.5212 H         1 UNK         0.1334 
     82 H82        31.2875   25.8120    5.5793 H         1 UNK         0.1417 
     83 H83        31.5482   25.9962    1.3044 H         1 UNK         0.1562 
     84 H84        30.3984   27.8737    2.9931 H         1 UNK         0.0748 
     85 H85        29.7394   27.1387    4.4261 H         1 UNK         0.0748 
     86 H86        28.7098   26.3302    0.0982 H         1 UNK         0.0940 
     87 H87        29.8183   27.4890    0.7279 H         1 UNK         0.0940 
     88 H88        27.7318   28.4257   -0.4149 H         1 UNK         0.0703 
     89 H89        26.4007   26.8695    1.5914 H         1 UNK         0.3081 
     90 H90        24.2791   26.5613    1.6492 H         1 UNK         0.0719 
     91 H91        23.9561   28.6016    2.9960 H         1 UNK         0.0809 
     92 H92        22.4008   27.8964    2.5862 H         1 UNK         0.0809 
     93 H93        22.9743   29.3261    1.7300 H         1 UNK         0.0809 
     94 H94        22.7494   28.0484   -0.4486 H         1 UNK         0.2990 
     95 H95        23.3334   24.7815    1.1487 H         1 UNK         0.0690 
     96 H96        22.4384   22.6569    0.3557 H         1 UNK         0.0788 
     97 H97        21.8864   23.3898   -1.1470 H         1 UNK         0.0788 
     98 H98        21.1674   23.8680    0.3853 H         1 UNK         0.0788 
     99 H99        24.2455   24.0841   -1.6171 H         1 UNK         0.2993 
    100 H100       26.4181   23.0523   -1.6622 H         1 UNK         0.0949 
    101 H101       26.0895   25.2594   -2.7554 H         1 UNK         0.0767 
    102 H102       27.1913   26.0367   -1.6341 H         1 UNK         0.0767 
    103 H103       27.7970   24.8668   -2.8049 H         1 UNK         0.0767 
    104 H104       27.9858   24.0260    0.5558 H         1 UNK         0.3013 
    105 H105       26.2552   30.2789    0.8974 H         1 UNK         0.3121 
    106 H106       27.2680   31.4893    3.1883 H         1 UNK         0.0774 
    107 H107       25.9184   33.4746    2.4691 H         1 UNK         0.0815 
    108 H108       25.7564   32.7875    0.8584 H         1 UNK         0.0815 
    109 H109       25.0322   31.9756    2.2469 H         1 UNK         0.0815 
    110 H110       28.4541   31.9222   -0.0953 H         1 UNK         0.2987 
    111 H111       30.1103   34.2409    0.4528 H         1 UNK         0.0949 
    112 H112       29.2255   33.7513   -1.8236 H         1 UNK         0.0806 
    113 H113       30.9797   33.7764   -1.8387 H         1 UNK         0.0806 
    114 H114       30.1311   32.2375   -1.8720 H         1 UNK         0.0806 
    115 H115       30.4864   30.8983    1.2461 H         1 UNK         0.3010 
    116 H116       33.4374   31.1969    1.6200 H         1 UNK         0.0829 
    117 H117       32.9513   29.7925   -0.4113 H         1 UNK         0.0813 
    118 H118       33.6800   28.8471    0.8755 H         1 UNK         0.0813 
    119 H119       31.9519   28.7258    0.5753 H         1 UNK         0.0813 
    120 H120       31.0646   31.5723    3.4281 H         1 UNK         0.3038 
    121 H121       30.5311   29.4132    5.0546 H         1 UNK         0.0769 
    122 H122       30.5282   32.3904    5.7750 H         1 UNK         0.0811 
    123 H123       29.6921   31.1309    6.6740 H         1 UNK         0.0811 
    124 H124       29.2057   31.4945    5.0273 H         1 UNK         0.0811 
    125 H125       33.4662   31.2451    5.1316 H         1 UNK         0.3204 
    126 H126       34.3194   30.4196    7.8049 H         1 UNK         0.0748 
    127 H127       36.4298   31.5652    7.1513 H         1 UNK         0.0771 
    128 H128       35.8529   31.7446    5.5007 H         1 UNK         0.0771 
    129 H129       35.0484   32.5937    6.8214 H         1 UNK         0.0771 
    130 H130       34.0084   28.6918    4.9250 H         1 UNK         0.2980 
    131 H131       34.6569   26.7691    4.1968 H         1 UNK         0.0545 
    132 H132       36.3744   29.3541    3.8112 H         1 UNK         0.3459 
    133 H133       37.7663   28.7040    2.9801 H         1 UNK         0.3459 
    134 H134       36.4307   26.2552    6.6330 H         1 UNK         0.0616 
    135 H135       35.9436   25.0744    5.4560 H         1 UNK         0.0616 
    136 H136       32.6171   23.7755    6.6294 H         1 UNK         0.0634 
    137 H137       34.1710   23.4256    5.9105 H         1 UNK         0.0634 
@<TRIPOS>BOND
     1    1    2 1    
     2    1   72 1    
     3    1   73 1    
     4    1   74 1    
     5    2    3 2    
     6    2    4 am   BACKBONE|DICT|INTERRES
     7    4    5 1    
     8    4   75 1    
     9    5    6 1    
    10    5   35 1    
    11    5   76 1    
    12    6    7 1    
    13    6   77 1    
    14    6   78 1    
    15    7    8 1    
    16    8    9 1    
    17    8   79 1    
    18    8   80 1    
    19    9   10 ar   
    20    9   14 ar   
    21   10   11 ar   
    22   10   81 1    
    23   11   12 ar   
    24   11   71 1    
    25   12   13 ar   
    26   12   82 1    
    27   13   14 ar   
    28   13   15 1    
    29   14   83 1    
    30   15   16 1    
    31   15   84 1    
    32   15   85 1    
    33   16   17 1    
    34   17   18 1    
    35   17   86 1    
    36   17   87 1    
    37   18   19 1    
    38   18   37 1    
    39   18   88 1    
    40   19   20 am   BACKBONE|DICT|INTERRES
    41   19   89 1    
    42   20   21 2    
    43   20   22 1    
    44   22   23 1    
    45   22   24 1    
    46   22   90 1    
    47   23   91 1    
    48   23   92 1    
    49   23   93 1    
    50   24   25 am   BACKBONE|DICT|INTERRES
    51   24   94 1    
    52   25   26 2    
    53   25   27 1    
    54   27   28 1    
    55   27   29 1    
    56   27   95 1    
    57   28   96 1    
    58   28   97 1    
    59   28   98 1    
    60   29   30 am   BACKBONE|DICT|INTERRES
    61   29   99 1    
    62   30   31 2    
    63   30   32 1    
    64   32   33 1    
    65   32   34 1    
    66   32  100 1    
    67   33  101 1    
    68   33  102 1    
    69   33  103 1    
    70   34   35 am   BACKBONE|DICT|INTERRES
    71   34  104 1    
    72   35   36 2    
    73   37   38 2    
    74   37   39 am   BACKBONE|DICT|INTERRES
    75   39   40 1    
    76   39  105 1    
    77   40   41 1    
    78   40   42 1    
    79   40  106 1    
    80   41  107 1    
    81   41  108 1    
    82   41  109 1    
    83   42   43 2    
    84   42   44 am   BACKBONE|DICT|INTERRES
    85   44   45 1    
    86   44  110 1    
    87   45   46 1    
    88   45   47 1    
    89   45  111 1    
    90   46  112 1    
    91   46  113 1    
    92   46  114 1    
    93   47   48 2    
    94   47   49 am   BACKBONE|DICT|INTERRES
    95   49   50 1    
    96   49  115 1    
    97   50   51 1    
    98   50   52 1    
    99   50  116 1    
   100   51  117 1    
   101   51  118 1    
   102   51  119 1    
   103   52   53 2    
   104   52   54 am   BACKBONE|DICT|INTERRES
   105   54   55 1    
   106   54  120 1    
   107   55   56 1    
   108   55   57 1    
   109   55  121 1    
   110   56  122 1    
   111   56  123 1    
   112   56  124 1    
   113   57   58 2    
   114   57   59 am   BACKBONE|DICT|INTERRES
   115   59   60 1    
   116   59  125 1    
   117   60   61 1    
   118   60   62 1    
   119   60  126 1    
   120   61  127 1    
   121   61  128 1    
   122   61  129 1    
   123   62   63 2    
   124   62   64 am   BACKBONE|DICT|INTERRES
   125   64   65 1    
   126   64  130 1    
   127   65   66 1    
   128   65   69 1    
   129   65  131 1    
   130   66   67 am   BACKBONE|DICT|INTERRES
   131   66   68 2    
   132   67  132 1    
   133   67  133 1    
   134   69   70 1    
   135   69  134 1    
   136   69  135 1    
   137   70   71 1    
   138   71  136 1    
   139   71  137 1    
@<TRIPOS>SUBSTRUCTURE
     1 UNK         1 GROUP             0       ****    0 ROOT    
