@<TRIPOS>MOLECULE
3R136
137   139    1
SMALL
USER_CHARGES


@<TRIPOS>ATOM
      1 CA         28.3167   19.3833   -0.1933 C.3       0 UNK        -0.1979 
      2 C          29.4081   20.2938   -0.7364 C.2       0 UNK         0.4864 
      3 O          30.0035   19.9858   -1.7697 O.2       0 UNK        -0.5359 
      4 N          29.6755   21.4095   -0.0448 N.am      1 UNK        -0.4318 
      5 CA         30.6576   22.4301   -0.4325 C.3       1 UNK         0.0824 
      6 C6         30.9623   23.4036    0.7402 C.3       12 UNK        -0.0944 
      7 S7         29.4987   24.3307    1.3446 S.3       12 UNK        -0.2672 
      8 C8         29.0968   23.4720    2.8957 C.3       12 UNK         0.0333 
      9 C9         29.4338   24.3399    4.0956 C.ar      12 UNK        -0.0807 
     10 C10        30.7592   24.4893    4.5089 C.ar      12 UNK        -0.0894 
     11 C11        31.0717   25.2879    5.6119 C.ar      12 UNK        -0.0804 
     12 C12        30.0445   25.9465    6.2977 C.ar      12 UNK        -0.0824 
     13 C13        28.7098   25.8053    5.8964 C.ar      12 UNK        -0.0762 
     14 C14        28.4154   24.9899    4.7967 C.ar      12 UNK        -0.0782 
     15 C15        27.6070   26.4963    6.7016 C.3       12 UNK         0.0230 
     16 S16        26.1117   26.9504    5.7484 S.3       12 UNK        -0.2608 
     17 C17        26.7412   28.2839    4.6759 C.3       12 UNK        -0.0989 
     18 CA         26.7990   27.8915    3.1729 C.3       5 UNK         0.0716 
     19 N          25.4810   27.6326    2.5967 N.am      5 UNK        -0.4135 
     20 C          25.0148   26.4366    2.2195 C.2       4 UNK         0.5031 
     21 O          25.5981   25.3701    2.4201 O.2       4 UNK        -0.5229 
     22 CA         23.6763   26.4213    1.4497 C.3       4 UNK         0.0329 
     23 CB         22.9403   27.7816    1.4270 C.3       4 UNK        -0.2001 
     24 N          23.8346   25.9184    0.0779 N.am      4 UNK        -0.4303 
     25 C          24.7137   26.3474   -0.8405 C.2       3 UNK         0.5044 
     26 O          25.5355   27.2482   -0.6498 O.2       3 UNK        -0.5152 
     27 CA         24.6423   25.6774   -2.2244 C.3       3 UNK         0.0319 
     28 CB         23.9175   26.5911   -3.2257 C.3       3 UNK        -0.2001 
     29 N          25.9830   25.3757   -2.7300 N.am      3 UNK        -0.4354 
     30 C          26.7792   24.4342   -2.2088 C.2       2 UNK         0.4964 
     31 O          26.4020   23.6329   -1.3465 O.2       2 UNK        -0.5047 
     32 CA         28.2334   24.3779   -2.7146 C.3       2 UNK         0.0288 
     33 CB         28.8789   25.7837   -2.7500 C.3       2 UNK        -0.2113 
     34 N          28.9401   23.5056   -1.7842 N.am      2 UNK        -0.4145 
     35 C          30.2390   23.1999   -1.7054 C.2       1 UNK         0.5006 
     36 O          31.0837   23.5023   -2.5502 O.2       1 UNK        -0.5103 
     37 C          27.5019   28.9649    2.3206 C.2       5 UNK         0.5055 
     38 O          28.0889   29.8933    2.8760 O.2       5 UNK        -0.5220 
     39 N          27.4704   28.8345    0.9828 N.am      6 UNK        -0.4450 
     40 CA         28.1901   29.7267    0.0563 C.3       6 UNK         0.0367 
     41 CB         27.8071   29.3946   -1.3937 C.3       6 UNK        -0.1929 
     42 C          29.7244   29.7229    0.2362 C.2       6 UNK         0.5070 
     43 O          30.3883   30.6677   -0.1903 O.2       6 UNK        -0.5237 
     44 N          30.2536   28.6947    0.9141 N.am      7 UNK        -0.4739 
     45 CA         31.6366   28.5916    1.3817 C.3       7 UNK         0.0276 
     46 CB         31.9099   27.1370    1.7930 C.3       7 UNK        -0.1927 
     47 C          32.0014   29.5557    2.5303 C.2       7 UNK         0.5013 
     48 O          33.1725   29.5889    2.9092 O.2       7 UNK        -0.5193 
     49 N          31.0412   30.3366    3.0580 N.am      8 UNK        -0.4253 
     50 CA         31.2074   31.3317    4.1319 C.3       8 UNK         0.0242 
     51 CB         29.8791   32.0675    4.3683 C.3       8 UNK        -0.2000 
     52 C          32.3459   32.3515    3.9393 C.2       8 UNK         0.4948 
     53 O          32.8550   32.8639    4.9357 O.2       8 UNK        -0.5275 
     54 N          32.7687   32.5904    2.6895 N.am      9 UNK        -0.4246 
     55 CA         33.9728   33.3549    2.3470 C.3       9 UNK         0.0261 
     56 CB         34.0695   33.4855    0.8184 C.3       9 UNK        -0.1959 
     57 C          35.2748   32.7547    2.9205 C.2       9 UNK         0.5033 
     58 O          36.2133   33.5090    3.1819 O.2       9 UNK        -0.5390 
     59 N          35.3031   31.4291    3.1179 N.am      10 UNK        -0.4215 
     60 CA         36.3769   30.6954    3.7865 C.3       10 UNK         0.0240 
     61 CB         36.7964   29.5011    2.9126 C.3       10 UNK        -0.1982 
     62 C          35.9328   30.2120    5.1767 C.2       10 UNK         0.4970 
     63 O          36.7187   30.3065    6.1202 O.2       10 UNK        -0.4916 
     64 N          34.7007   29.6937    5.2806 N.am      11 UNK        -0.4279 
     65 CA         34.1310   29.1223    6.5123 C.3       11 UNK         0.1003 
     66 C          33.7865   30.1533    7.6250 C.2       11 UNK         0.5709 
     67 N          33.6329   31.4387    7.3344 N.am      11 UNK        -0.7358 
     68 O          33.6672   29.7751    8.7880 O.2       11 UNK        -0.4999 
     69 C69        32.9189   28.2010    6.2103 C.3       12 UNK        -0.0954 
     70 S70        33.3929   26.7509    5.2119 S.3       12 UNK        -0.2268 
     71 C71        32.5189   25.4055    6.0699 C.3       12 UNK         0.0203 
     72 H72        27.8808   19.7720    0.7269 H         1 UNK         0.0888 
     73 H73        27.5184   19.2765   -0.9272 H         1 UNK         0.0888 
     74 H74        28.7228   18.3939    0.0158 H         1 UNK         0.0888 
     75 H75        29.1503   21.6102    0.7935 H         1 UNK         0.3017 
     76 H76        31.5863   21.9087   -0.6750 H         1 UNK         0.0873 
     77 H77        31.4165   22.8553    1.5664 H         1 UNK         0.0745 
     78 H78        31.7192   24.1271    0.4333 H         1 UNK         0.0745 
     79 H79        28.0322   23.2319    2.8882 H         1 UNK         0.0705 
     80 H80        29.6208   22.5182    2.9671 H         1 UNK         0.0705 
     81 H81        31.5486   23.9841    3.9691 H         1 UNK         0.1334 
     82 H82        30.2848   26.5581    7.1565 H         1 UNK         0.1417 
     83 H83        27.3900   24.8572    4.4791 H         1 UNK         0.1562 
     84 H84        27.9969   27.3944    7.1836 H         1 UNK         0.0748 
     85 H85        27.3060   25.8247    7.5065 H         1 UNK         0.0748 
     86 H86        27.7322   28.5695    5.0349 H         1 UNK         0.0940 
     87 H87        26.1094   29.1628    4.8157 H         1 UNK         0.0940 
     88 H88        27.4248   27.0022    3.0794 H         1 UNK         0.0703 
     89 H89        24.9366   28.4505    2.3631 H         1 UNK         0.3081 
     90 H90        23.0366   25.7085    1.9722 H         1 UNK         0.0719 
     91 H91        23.4952   28.5442    0.8789 H         1 UNK         0.0809 
     92 H92        21.9651   27.6856    0.9492 H         1 UNK         0.0809 
     93 H93        22.7594   28.1534    2.4366 H         1 UNK         0.0809 
     94 H94        23.2294   25.1486   -0.1714 H         1 UNK         0.2990 
     95 H95        24.0848   24.7416   -2.1433 H         1 UNK         0.0690 
     96 H96        23.8340   26.1205   -4.2055 H         1 UNK         0.0788 
     97 H97        24.4359   27.5428   -3.3520 H         1 UNK         0.0788 
     98 H98        22.9050   26.8150   -2.8868 H         1 UNK         0.0788 
     99 H99        26.3650   26.0175   -3.4087 H         1 UNK         0.2993 
    100 H100       28.2435   23.9275   -3.7085 H         1 UNK         0.0949 
    101 H101       29.8957   25.7513   -3.1403 H         1 UNK         0.0767 
    102 H102       28.3292   26.4712   -3.3930 H         1 UNK         0.0767 
    103 H103       28.9235   26.2205   -1.7516 H         1 UNK         0.0767 
    104 H104       28.3284   23.1738   -1.0461 H         1 UNK         0.3013 
    105 H105       26.9181   28.0921    0.5601 H         1 UNK         0.3121 
    106 H106       27.8566   30.7459    0.2627 H         1 UNK         0.0774 
    107 H107       28.0379   28.3609   -1.6436 H         1 UNK         0.0815 
    108 H108       28.3431   30.0309   -2.0993 H         1 UNK         0.0815 
    109 H109       26.7419   29.5491   -1.5660 H         1 UNK         0.0815 
    110 H110       29.6279   27.9597    1.2096 H         1 UNK         0.2987 
    111 H111       32.2939   28.8383    0.5453 H         1 UNK         0.0949 
    112 H112       31.2749   26.8240    2.6232 H         1 UNK         0.0806 
    113 H113       31.7388   26.4559    0.9606 H         1 UNK         0.0806 
    114 H114       32.9457   27.0036    2.1081 H         1 UNK         0.0806 
    115 H115       30.0903   30.2113    2.7251 H         1 UNK         0.3010 
    116 H116       31.4435   30.7829    5.0432 H         1 UNK         0.0829 
    117 H117       29.1157   31.3903    4.7508 H         1 UNK         0.0813 
    118 H118       29.9918   32.8630    5.1065 H         1 UNK         0.0813 
    119 H119       29.5000   32.5212    3.4519 H         1 UNK         0.0813 
    120 H120       32.2837   32.1356    1.9289 H         1 UNK         0.3038 
    121 H121       33.8600   34.3545    2.7718 H         1 UNK         0.0769 
    122 H122       34.1572   32.5117    0.3346 H         1 UNK         0.0811 
    123 H123       34.9438   34.0718    0.5317 H         1 UNK         0.0811 
    124 H124       33.1949   33.9888    0.4060 H         1 UNK         0.0811 
    125 H125       34.4731   30.8860    2.8888 H         1 UNK         0.3204 
    126 H126       37.2495   31.3378    3.9220 H         1 UNK         0.0748 
    127 H127       37.5958   28.9309    3.3878 H         1 UNK         0.0771 
    128 H128       35.9660   28.8158    2.7353 H         1 UNK         0.0771 
    129 H129       37.1673   29.8336    1.9429 H         1 UNK         0.0771 
    130 H130       34.1248   29.6104    4.4467 H         1 UNK         0.2980 
    131 H131       34.9075   28.4896    6.9472 H         1 UNK         0.0545 
    132 H132       33.4203   32.0807    8.0806 H         1 UNK         0.3459 
    133 H133       33.6585   31.7808    6.3806 H         1 UNK         0.3459 
    134 H134       32.4666   27.8541    7.1407 H         1 UNK         0.0616 
    135 H135       32.1363   28.7398    5.6779 H         1 UNK         0.0616 
    136 H136       33.0425   24.4709    5.8632 H         1 UNK         0.0634 
    137 H137       32.5742   25.5436    7.1506 H         1 UNK         0.0634 
@<TRIPOS>BOND
     1    1    2 1    
     2    1   72 1    
     3    1   73 1    
     4    1   74 1    
     5    2    3 2    
     6    2    4 am   BACKBONE|DICT|INTERRES
     7    4    5 1    
     8    4   75 1    
     9    5    6 1    
    10    5   35 1    
    11    5   76 1    
    12    6    7 1    
    13    6   77 1    
    14    6   78 1    
    15    7    8 1    
    16    8    9 1    
    17    8   79 1    
    18    8   80 1    
    19    9   10 ar   
    20    9   14 ar   
    21   10   11 ar   
    22   10   81 1    
    23   11   12 ar   
    24   11   71 1    
    25   12   13 ar   
    26   12   82 1    
    27   13   14 ar   
    28   13   15 1    
    29   14   83 1    
    30   15   16 1    
    31   15   84 1    
    32   15   85 1    
    33   16   17 1    
    34   17   18 1    
    35   17   86 1    
    36   17   87 1    
    37   18   19 1    
    38   18   37 1    
    39   18   88 1    
    40   19   20 am   BACKBONE|DICT|INTERRES
    41   19   89 1    
    42   20   21 2    
    43   20   22 1    
    44   22   23 1    
    45   22   24 1    
    46   22   90 1    
    47   23   91 1    
    48   23   92 1    
    49   23   93 1    
    50   24   25 am   BACKBONE|DICT|INTERRES
    51   24   94 1    
    52   25   26 2    
    53   25   27 1    
    54   27   28 1    
    55   27   29 1    
    56   27   95 1    
    57   28   96 1    
    58   28   97 1    
    59   28   98 1    
    60   29   30 am   BACKBONE|DICT|INTERRES
    61   29   99 1    
    62   30   31 2    
    63   30   32 1    
    64   32   33 1    
    65   32   34 1    
    66   32  100 1    
    67   33  101 1    
    68   33  102 1    
    69   33  103 1    
    70   34   35 am   BACKBONE|DICT|INTERRES
    71   34  104 1    
    72   35   36 2    
    73   37   38 2    
    74   37   39 am   BACKBONE|DICT|INTERRES
    75   39   40 1    
    76   39  105 1    
    77   40   41 1    
    78   40   42 1    
    79   40  106 1    
    80   41  107 1    
    81   41  108 1    
    82   41  109 1    
    83   42   43 2    
    84   42   44 am   BACKBONE|DICT|INTERRES
    85   44   45 1    
    86   44  110 1    
    87   45   46 1    
    88   45   47 1    
    89   45  111 1    
    90   46  112 1    
    91   46  113 1    
    92   46  114 1    
    93   47   48 2    
    94   47   49 am   BACKBONE|DICT|INTERRES
    95   49   50 1    
    96   49  115 1    
    97   50   51 1    
    98   50   52 1    
    99   50  116 1    
   100   51  117 1    
   101   51  118 1    
   102   51  119 1    
   103   52   53 2    
   104   52   54 am   BACKBONE|DICT|INTERRES
   105   54   55 1    
   106   54  120 1    
   107   55   56 1    
   108   55   57 1    
   109   55  121 1    
   110   56  122 1    
   111   56  123 1    
   112   56  124 1    
   113   57   58 2    
   114   57   59 am   BACKBONE|DICT|INTERRES
   115   59   60 1    
   116   59  125 1    
   117   60   61 1    
   118   60   62 1    
   119   60  126 1    
   120   61  127 1    
   121   61  128 1    
   122   61  129 1    
   123   62   63 2    
   124   62   64 am   BACKBONE|DICT|INTERRES
   125   64   65 1    
   126   64  130 1    
   127   65   66 1    
   128   65   69 1    
   129   65  131 1    
   130   66   67 am   BACKBONE|DICT|INTERRES
   131   66   68 2    
   132   67  132 1    
   133   67  133 1    
   134   69   70 1    
   135   69  134 1    
   136   69  135 1    
   137   70   71 1    
   138   71  136 1    
   139   71  137 1    
@<TRIPOS>SUBSTRUCTURE
     1 UNK         1 GROUP             0       ****    0 ROOT    
