@<TRIPOS>MOLECULE
3R136
137   139    1
SMALL
USER_CHARGES


@<TRIPOS>ATOM
      1 CA         27.1778   23.4694   -0.0605 C.3       0 UNK        -0.1979 
      2 C          28.6872   23.6539   -0.0616 C.2       0 UNK         0.4864 
      3 O          29.1685   24.7268    0.3027 O.2       0 UNK        -0.5359 
      4 N          29.4288   22.6177   -0.4787 N.am      1 UNK        -0.4318 
      5 CA         30.8954   22.5266   -0.5134 C.3       1 UNK         0.0824 
      6 C6         31.5356   22.4299    0.8986 C.3       12 UNK        -0.0944 
      7 S7         31.0734   20.8609    1.7052 S.3       12 UNK        -0.2672 
      8 C8         31.5894   21.1540    3.4264 C.3       12 UNK         0.0333 
      9 C9         30.6943   22.1540    4.1466 C.ar      12 UNK        -0.0807 
     10 C10        31.2415   23.3146    4.6997 C.ar      12 UNK        -0.0894 
     11 C11        30.4306   24.2312    5.3760 C.ar      12 UNK        -0.0804 
     12 C12        29.0675   23.9643    5.5251 C.ar      12 UNK        -0.0824 
     13 C13        28.5043   22.8133    4.9663 C.ar      12 UNK        -0.0762 
     14 C14        29.3238   21.9101    4.2822 C.ar      12 UNK        -0.0782 
     15 C15        27.0143   22.5382    5.1016 C.3       12 UNK         0.0230 
     16 S16        26.0446   23.4676    3.8706 S.3       12 UNK        -0.2608 
     17 C17        25.8360   25.0845    4.6936 C.3       12 UNK        -0.0989 
     18 CA         26.6790   26.2189    4.0508 C.3       5 UNK         0.0716 
     19 N          26.3094   26.4332    2.6496 N.am      5 UNK        -0.4135 
     20 C          27.0866   27.0123    1.7291 C.2       4 UNK         0.5031 
     21 O          28.2170   27.4501    1.9563 O.2       4 UNK        -0.5229 
     22 CA         26.4825   27.1681    0.3316 C.3       4 UNK         0.0329 
     23 CB         25.5793   28.4130    0.2597 C.3       4 UNK        -0.2001 
     24 N          27.5764   27.2960   -0.6225 N.am      4 UNK        -0.4303 
     25 C          27.5294   26.9614   -1.9158 C.2       3 UNK         0.5044 
     26 O          26.5306   26.5072   -2.4747 O.2       3 UNK        -0.5152 
     27 CA         28.8154   27.1678   -2.7225 C.3       3 UNK         0.0319 
     28 CB         28.9569   28.6614   -3.0937 C.3       3 UNK        -0.2001 
     29 N          29.9771   26.6553   -1.9858 N.am      3 UNK        -0.4354 
     30 C          31.2380   26.6212   -2.4428 C.2       2 UNK         0.4964 
     31 O          31.5877   27.0518   -3.5422 O.2       2 UNK        -0.5047 
     32 CA         32.2976   25.9756   -1.5336 C.3       2 UNK         0.0288 
     33 CB         32.8443   26.9971   -0.5251 C.3       2 UNK        -0.2113 
     34 N          31.7960   24.7999   -0.8216 N.am      2 UNK        -0.4145 
     35 C          31.5234   23.6221   -1.4004 C.2       1 UNK         0.5006 
     36 O          31.7382   23.3797   -2.5898 O.2       1 UNK        -0.5103 
     37 C          26.5666   27.5377    4.8499 C.2       5 UNK         0.5055 
     38 O          25.7041   27.6525    5.7240 O.2       5 UNK        -0.5220 
     39 N          27.4092   28.5229    4.5235 N.am      6 UNK        -0.4450 
     40 CA         27.4355   29.8424    5.1444 C.3       6 UNK         0.0367 
     41 CB         26.4047   30.7597    4.4608 C.3       6 UNK        -0.1929 
     42 C          28.8400   30.4344    5.0229 C.2       6 UNK         0.5070 
     43 O          29.5306   30.1826    4.0330 O.2       6 UNK        -0.5237 
     44 N          29.2125   31.2759    5.9968 N.am      7 UNK        -0.4739 
     45 CA         30.4949   31.9900    6.0446 C.3       7 UNK         0.0276 
     46 CB         30.5966   32.7720    7.3634 C.3       7 UNK        -0.1927 
     47 C          30.7307   32.9242    4.8443 C.2       7 UNK         0.5013 
     48 O          31.8801   33.1180    4.4511 O.2       7 UNK        -0.5193 
     49 N          29.6421   33.4305    4.2468 N.am      8 UNK        -0.4253 
     50 CA         29.6376   34.2254    3.0155 C.3       8 UNK         0.0242 
     51 CB         28.2092   34.7257    2.7453 C.3       8 UNK        -0.2000 
     52 C          30.1864   33.4791    1.7834 C.2       8 UNK         0.4948 
     53 O          30.7070   34.1313    0.8779 O.2       8 UNK        -0.5275 
     54 N          30.0848   32.1409    1.7710 N.am      9 UNK        -0.4246 
     55 CA         30.6750   31.2821    0.7407 C.3       9 UNK         0.0261 
     56 CB         29.8482   29.9911    0.6278 C.3       9 UNK        -0.1959 
     57 C          32.1461   30.9336    1.0297 C.2       9 UNK         0.5033 
     58 O          32.8061   30.3913    0.1435 O.2       9 UNK        -0.5390 
     59 N          32.6234   31.2178    2.2534 N.am      10 UNK        -0.4215 
     60 CA         33.9310   30.8492    2.8075 C.3       10 UNK         0.0240 
     61 CB         35.0664   31.6193    2.0995 C.3       10 UNK        -0.1982 
     62 C          34.1492   29.3228    2.8285 C.2       10 UNK         0.4970 
     63 O          35.2261   28.8494    2.4606 O.2       10 UNK        -0.4916 
     64 N          33.1135   28.5804    3.2472 N.am      11 UNK        -0.4279 
     65 CA         33.1081   27.1103    3.2933 C.3       11 UNK         0.1003 
     66 C          34.0594   26.4593    4.3399 C.2       11 UNK         0.5709 
     67 N          34.5764   27.1941    5.3179 N.am      11 UNK        -0.7358 
     68 O          34.3397   25.2664    4.2546 O.2       11 UNK        -0.4999 
     69 C69        31.6653   26.5423    3.3585 C.3       12 UNK        -0.0954 
     70 S70        30.7432   26.9584    4.8832 S.3       12 UNK        -0.2268 
     71 C71        31.0280   25.5067    5.9521 C.3       12 UNK         0.0203 
     72 H72        26.7635   23.8004    0.8909 H         1 UNK         0.0888 
     73 H73        26.7262   24.0604   -0.8564 H         1 UNK         0.0888 
     74 H74        26.8951   22.4269   -0.2053 H         1 UNK         0.0888 
     75 H75        28.9540   21.7817   -0.7890 H         1 UNK         0.3017 
     76 H76        31.1159   21.5892   -1.0275 H         1 UNK         0.0873 
     77 H77        32.6252   22.4650    0.8381 H         1 UNK         0.0745 
     78 H78        31.2278   23.2654    1.5299 H         1 UNK         0.0745 
     79 H79        32.6310   21.4793    3.4348 H         1 UNK         0.0705 
     80 H80        31.5595   20.2067    3.9663 H         1 UNK         0.0705 
     81 H81        32.3000   23.5116    4.5969 H         1 UNK         0.1334 
     82 H82        28.4442   24.6647    6.0623 H         1 UNK         0.1417 
     83 H83        28.8969   21.0152    3.8500 H         1 UNK         0.1562 
     84 H84        26.6743   22.7691    6.1121 H         1 UNK         0.0748 
     85 H85        26.8183   21.4742    4.9594 H         1 UNK         0.0748 
     86 H86        26.0767   24.9823    5.7530 H         1 UNK         0.0940 
     87 H87        24.7742   25.3370    4.6612 H         1 UNK         0.0940 
     88 H88        27.7284   25.9194    4.0793 H         1 UNK         0.0703 
     89 H89        25.3846   26.1258    2.3877 H         1 UNK         0.3081 
     90 H90        25.8999   26.2737    0.1016 H         1 UNK         0.0719 
     91 H91        26.1334   29.3238    0.4911 H         1 UNK         0.0809 
     92 H92        25.1428   28.5303   -0.7322 H         1 UNK         0.0809 
     93 H93        24.7540   28.3433    0.9693 H         1 UNK         0.0809 
     94 H94        28.4440   27.6060   -0.2026 H         1 UNK         0.2990 
     95 H95        28.7242   26.5870   -3.6425 H         1 UNK         0.0690 
     96 H96        29.7562   28.8319   -3.8138 H         1 UNK         0.0788 
     97 H97        29.1557   29.2818   -2.2209 H         1 UNK         0.0788 
     98 H98        28.0408   29.0356   -3.5531 H         1 UNK         0.0788 
     99 H99        29.7712   26.1877   -1.1069 H         1 UNK         0.2993 
    100 H100       33.1249   25.6576   -2.1723 H         1 UNK         0.0949 
    101 H101       33.2032   27.8932   -1.0337 H         1 UNK         0.0767 
    102 H102       32.0843   27.3145    0.1899 H         1 UNK         0.0767 
    103 H103       33.6879   26.5872    0.0292 H         1 UNK         0.0767 
    104 H104       31.4861   24.9343    0.1313 H         1 UNK         0.3013 
    105 H105       28.0983   28.3679    3.7893 H         1 UNK         0.3121 
    106 H106       27.1933   29.7465    6.2051 H         1 UNK         0.0774 
    107 H107       26.4083   31.7565    4.9031 H         1 UNK         0.0815 
    108 H108       26.6123   30.8718    3.3956 H         1 UNK         0.0815 
    109 H109       25.3932   30.3664    4.5635 H         1 UNK         0.0815 
    110 H110       28.5780   31.4392    6.7662 H         1 UNK         0.2987 
    111 H111       31.2885   31.2395    6.0281 H         1 UNK         0.0949 
    112 H112       29.8087   33.5211    7.4521 H         1 UNK         0.0806 
    113 H113       30.5291   32.1082    8.2256 H         1 UNK         0.0806 
    114 H114       31.5519   33.2943    7.4345 H         1 UNK         0.0806 
    115 H115       28.7428   33.2113    4.6491 H         1 UNK         0.3010 
    116 H116       30.2806   35.0924    3.1819 H         1 UNK         0.0829 
    117 H117       27.8384   35.3356    3.5694 H         1 UNK         0.0813 
    118 H118       28.1760   35.3445    1.8473 H         1 UNK         0.0813 
    119 H119       27.5127   33.8993    2.5970 H         1 UNK         0.0813 
    120 H120       29.6681   31.6630    2.5636 H         1 UNK         0.3038 
    121 H121       30.6396   31.7932   -0.2238 H         1 UNK         0.0769 
    122 H122       30.2467   29.3402   -0.1508 H         1 UNK         0.0811 
    123 H123       28.8063   30.1987    0.3842 H         1 UNK         0.0811 
    124 H124       29.8713   29.4221    1.5569 H         1 UNK         0.0811 
    125 H125       32.0198   31.7228    2.8920 H         1 UNK         0.3204 
    126 H126       33.9208   31.1684    3.8507 H         1 UNK         0.0748 
    127 H127       36.0246   31.4397    2.5886 H         1 UNK         0.0771 
    128 H128       35.1726   31.3189    1.0566 H         1 UNK         0.0771 
    129 H129       34.8884   32.6945    2.1224 H         1 UNK         0.0771 
    130 H130       32.2597   29.0337    3.5401 H         1 UNK         0.2980 
    131 H131       33.5110   26.7858    2.3339 H         1 UNK         0.0545 
    132 H132       35.1969   26.7625    5.9839 H         1 UNK         0.3459 
    133 H133       34.3493   28.1715    5.3975 H         1 UNK         0.3459 
    134 H134       31.0860   26.9384    2.5227 H         1 UNK         0.0616 
    135 H135       31.6736   25.4655    3.2005 H         1 UNK         0.0616 
    136 H136       32.0959   25.3829    6.1322 H         1 UNK         0.0634 
    137 H137       30.5829   25.7051    6.9280 H         1 UNK         0.0634 
@<TRIPOS>BOND
     1    1    2 1    
     2    1   72 1    
     3    1   73 1    
     4    1   74 1    
     5    2    3 2    
     6    2    4 am   BACKBONE|DICT|INTERRES
     7    4    5 1    
     8    4   75 1    
     9    5    6 1    
    10    5   35 1    
    11    5   76 1    
    12    6    7 1    
    13    6   77 1    
    14    6   78 1    
    15    7    8 1    
    16    8    9 1    
    17    8   79 1    
    18    8   80 1    
    19    9   10 ar   
    20    9   14 ar   
    21   10   11 ar   
    22   10   81 1    
    23   11   12 ar   
    24   11   71 1    
    25   12   13 ar   
    26   12   82 1    
    27   13   14 ar   
    28   13   15 1    
    29   14   83 1    
    30   15   16 1    
    31   15   84 1    
    32   15   85 1    
    33   16   17 1    
    34   17   18 1    
    35   17   86 1    
    36   17   87 1    
    37   18   19 1    
    38   18   37 1    
    39   18   88 1    
    40   19   20 am   BACKBONE|DICT|INTERRES
    41   19   89 1    
    42   20   21 2    
    43   20   22 1    
    44   22   23 1    
    45   22   24 1    
    46   22   90 1    
    47   23   91 1    
    48   23   92 1    
    49   23   93 1    
    50   24   25 am   BACKBONE|DICT|INTERRES
    51   24   94 1    
    52   25   26 2    
    53   25   27 1    
    54   27   28 1    
    55   27   29 1    
    56   27   95 1    
    57   28   96 1    
    58   28   97 1    
    59   28   98 1    
    60   29   30 am   BACKBONE|DICT|INTERRES
    61   29   99 1    
    62   30   31 2    
    63   30   32 1    
    64   32   33 1    
    65   32   34 1    
    66   32  100 1    
    67   33  101 1    
    68   33  102 1    
    69   33  103 1    
    70   34   35 am   BACKBONE|DICT|INTERRES
    71   34  104 1    
    72   35   36 2    
    73   37   38 2    
    74   37   39 am   BACKBONE|DICT|INTERRES
    75   39   40 1    
    76   39  105 1    
    77   40   41 1    
    78   40   42 1    
    79   40  106 1    
    80   41  107 1    
    81   41  108 1    
    82   41  109 1    
    83   42   43 2    
    84   42   44 am   BACKBONE|DICT|INTERRES
    85   44   45 1    
    86   44  110 1    
    87   45   46 1    
    88   45   47 1    
    89   45  111 1    
    90   46  112 1    
    91   46  113 1    
    92   46  114 1    
    93   47   48 2    
    94   47   49 am   BACKBONE|DICT|INTERRES
    95   49   50 1    
    96   49  115 1    
    97   50   51 1    
    98   50   52 1    
    99   50  116 1    
   100   51  117 1    
   101   51  118 1    
   102   51  119 1    
   103   52   53 2    
   104   52   54 am   BACKBONE|DICT|INTERRES
   105   54   55 1    
   106   54  120 1    
   107   55   56 1    
   108   55   57 1    
   109   55  121 1    
   110   56  122 1    
   111   56  123 1    
   112   56  124 1    
   113   57   58 2    
   114   57   59 am   BACKBONE|DICT|INTERRES
   115   59   60 1    
   116   59  125 1    
   117   60   61 1    
   118   60   62 1    
   119   60  126 1    
   120   61  127 1    
   121   61  128 1    
   122   61  129 1    
   123   62   63 2    
   124   62   64 am   BACKBONE|DICT|INTERRES
   125   64   65 1    
   126   64  130 1    
   127   65   66 1    
   128   65   69 1    
   129   65  131 1    
   130   66   67 am   BACKBONE|DICT|INTERRES
   131   66   68 2    
   132   67  132 1    
   133   67  133 1    
   134   69   70 1    
   135   69  134 1    
   136   69  135 1    
   137   70   71 1    
   138   71  136 1    
   139   71  137 1    
@<TRIPOS>SUBSTRUCTURE
     1 UNK         1 GROUP             0       ****    0 ROOT    
