@<TRIPOS>MOLECULE
3R136
137   139    1
SMALL
USER_CHARGES


@<TRIPOS>ATOM
      1 CA         26.7088   22.3281    1.6899 C.3       0 UNK        -0.1979 
      2 C          27.5774   21.8966    0.5169 C.2       0 UNK         0.4864 
      3 O          28.0185   20.7470    0.4733 O.2       0 UNK        -0.5359 
      4 N          27.8303   22.8097   -0.4246 N.am      1 UNK        -0.4318 
      5 CA         28.6843   22.6007   -1.5957 C.3       1 UNK         0.0824 
      6 C6         30.2091   22.6999   -1.2906 C.3       12 UNK        -0.0944 
      7 S7         30.6835   24.0642   -0.1645 S.3       12 UNK        -0.2672 
      8 C8         31.2182   23.0821    1.2742 C.3       12 UNK         0.0333 
      9 C9         31.4557   23.9283    2.5157 C.ar      12 UNK        -0.0807 
     10 C10        32.5437   24.8037    2.5747 C.ar      12 UNK        -0.0894 
     11 C11        32.8035   25.5352    3.7376 C.ar      12 UNK        -0.0804 
     12 C12        31.9571   25.3955    4.8433 C.ar      12 UNK        -0.0824 
     13 C13        30.8824   24.5026    4.8064 C.ar      12 UNK        -0.0762 
     14 C14        30.6290   23.7823    3.6346 C.ar      12 UNK        -0.0782 
     15 C15        30.0500   24.2465    6.0561 C.3       12 UNK         0.0230 
     16 S16        28.3054   24.7165    5.8510 S.3       12 UNK        -0.2608 
     17 C17        28.3577   26.5266    6.0861 C.3       12 UNK        -0.0989 
     18 CA         28.2325   27.3183    4.7613 C.3       5 UNK         0.0716 
     19 N          27.0983   26.8589    3.9495 N.am      5 UNK        -0.4135 
     20 C          26.7890   27.3239    2.7343 C.2       4 UNK         0.5031 
     21 O          27.4808   28.1438    2.1248 O.2       4 UNK        -0.5229 
     22 CA         25.4568   26.8338    2.1353 C.3       4 UNK         0.0329 
     23 CB         24.2707   27.5111    2.8431 C.3       4 UNK        -0.2001 
     24 N          25.3689   27.1224    0.7027 N.am      4 UNK        -0.4303 
     25 C          26.0888   26.4991   -0.2354 C.2       3 UNK         0.5044 
     26 O          26.7827   25.4989   -0.0142 O.2       3 UNK        -0.5152 
     27 CA         26.0482   27.0978   -1.6521 C.3       3 UNK         0.0319 
     28 CB         26.1233   28.6394   -1.6690 C.3       3 UNK        -0.2001 
     29 N          27.1807   26.5256   -2.3614 N.am      3 UNK        -0.4354 
     30 C          27.3657   26.4072   -3.6772 C.2       2 UNK         0.4964 
     31 O          26.6341   26.9083   -4.5314 O.2       2 UNK        -0.5047 
     32 CA         28.5734   25.5488   -4.1026 C.3       2 UNK         0.0288 
     33 CB         29.7904   26.4425   -4.3927 C.3       2 UNK        -0.2113 
     34 N          28.9468   24.5384   -3.1005 N.am      2 UNK        -0.4145 
     35 C          28.1741   23.5060   -2.7280 C.2       1 UNK         0.5006 
     36 O          27.0787   23.2592   -3.2372 O.2       1 UNK        -0.5103 
     37 C          28.1019   28.8300    5.0519 C.2       5 UNK         0.5055 
     38 O          26.9856   29.3007    5.2835 O.2       5 UNK        -0.5220 
     39 N          29.2209   29.5644    4.9950 N.am      6 UNK        -0.4450 
     40 CA         29.3465   31.0293    5.0620 C.3       6 UNK         0.0367 
     41 CB         28.6689   31.6388    6.3056 C.3       6 UNK        -0.1929 
     42 C          28.9225   31.7479    3.7668 C.2       6 UNK         0.5070 
     43 O          29.5319   32.7638    3.4327 O.2       6 UNK        -0.5237 
     44 N          27.9260   31.2173    3.0433 N.am      7 UNK        -0.4739 
     45 CA         27.5019   31.7128    1.7310 C.3       7 UNK         0.0276 
     46 CB         26.0763   31.2289    1.4163 C.3       7 UNK        -0.1927 
     47 C          28.4881   31.3025    0.6253 C.2       7 UNK         0.5013 
     48 O          28.8748   32.1494   -0.1806 O.2       7 UNK        -0.5193 
     49 N          28.8905   30.0227    0.6203 N.am      8 UNK        -0.4253 
     50 CA         29.9206   29.4736   -0.2659 C.3       8 UNK         0.0242 
     51 CB         29.8988   27.9358   -0.2003 C.3       8 UNK        -0.2000 
     52 C          31.3125   30.0095    0.0989 C.2       8 UNK         0.4948 
     53 O          32.0241   30.5164   -0.7690 O.2       8 UNK        -0.5275 
     54 N          31.6482   29.9037    1.3879 N.am      9 UNK        -0.4246 
     55 CA         32.8619   30.3905    2.0290 C.3       9 UNK         0.0261 
     56 CB         34.0930   29.5906    1.5591 C.3       9 UNK        -0.1959 
     57 C          32.6660   30.2410    3.5395 C.2       9 UNK         0.5033 
     58 O          31.9127   29.3617    3.9706 O.2       9 UNK        -0.5390 
     59 N          33.3628   31.0754    4.3162 N.am      10 UNK        -0.4215 
     60 CA         33.4008   31.0262    5.7786 C.3       10 UNK         0.0240 
     61 CB         33.1550   32.4406    6.3384 C.3       10 UNK        -0.1982 
     62 C          34.7521   30.4365    6.2115 C.2       10 UNK         0.4970 
     63 O          35.5696   31.1309    6.8176 O.2       10 UNK        -0.4916 
     64 N          34.9785   29.1728    5.8349 N.am      11 UNK        -0.4279 
     65 CA         36.2311   28.4341    6.0599 C.3       11 UNK         0.1003 
     66 C          36.4725   27.9523    7.5221 C.2       11 UNK         0.5709 
     67 N          35.5063   28.0569    8.4272 N.am      11 UNK        -0.7358 
     68 O          37.5648   27.4899    7.8434 O.2       11 UNK        -0.4999 
     69 C69        36.4141   27.3014    5.0129 C.3       12 UNK        -0.0954 
     70 S70        35.1679   25.9705    5.1187 S.3       12 UNK        -0.2268 
     71 C71        34.0084   26.4614    3.8051 C.3       12 UNK         0.0203 
     72 H72        26.3771   23.3615    1.5925 H         1 UNK         0.0888 
     73 H73        25.8257   21.6936    1.7576 H         1 UNK         0.0888 
     74 H74        27.2666   22.2397    2.6219 H         1 UNK         0.0888 
     75 H75        27.4357   23.7445   -0.3332 H         1 UNK         0.3017 
     76 H76        28.5018   21.5877   -1.9618 H         1 UNK         0.0873 
     77 H77        30.5277   21.7555   -0.8469 H         1 UNK         0.0745 
     78 H78        30.7957   22.7741   -2.2082 H         1 UNK         0.0745 
     79 H79        32.1366   22.5503    1.0211 H         1 UNK         0.0705 
     80 H80        30.4690   22.3165    1.4817 H         1 UNK         0.0705 
     81 H81        33.1945   24.9011    1.7164 H         1 UNK         0.1334 
     82 H82        32.1670   25.9505    5.7475 H         1 UNK         0.1417 
     83 H83        29.8030   23.0844    3.6087 H         1 UNK         0.1562 
     84 H84        30.4696   24.7560    6.9249 H         1 UNK         0.0748 
     85 H85        30.0930   23.1809    6.2861 H         1 UNK         0.0748 
     86 H86        29.2763   26.8028    6.6072 H         1 UNK         0.0940 
     87 H87        27.5413   26.7861    6.7639 H         1 UNK         0.0940 
     88 H88        29.1378   27.1531    4.1721 H         1 UNK         0.0703 
     89 H89        26.4803   26.1993    4.3973 H         1 UNK         0.3081 
     90 H90        25.3886   25.7534    2.2794 H         1 UNK         0.0719 
     91 H91        24.3097   28.5971    2.7461 H         1 UNK         0.0809 
     92 H92        23.3182   27.1714    2.4358 H         1 UNK         0.0809 
     93 H93        24.2626   27.2826    3.9096 H         1 UNK         0.0809 
     94 H94        24.8459   27.9442    0.4408 H         1 UNK         0.2990 
     95 H95        25.1254   26.7674   -2.1325 H         1 UNK         0.0690 
     96 H96        26.1961   29.0231   -2.6866 H         1 UNK         0.0788 
     97 H97        26.9879   29.0051   -1.1167 H         1 UNK         0.0788 
     98 H98        25.2343   29.0894   -1.2268 H         1 UNK         0.0788 
     99 H99        27.8054   26.0187   -1.7466 H         1 UNK         0.2993 
    100 H100       28.2966   25.0273   -5.0214 H         1 UNK         0.0949 
    101 H101       30.1196   26.9790   -3.5017 H         1 UNK         0.0767 
    102 H102       30.6325   25.8586   -4.7648 H         1 UNK         0.0767 
    103 H103       29.5538   27.1882   -5.1532 H         1 UNK         0.0767 
    104 H104       29.8257   24.6725   -2.6188 H         1 UNK         0.3013 
    105 H105       30.0944   29.1027    4.7522 H         1 UNK         0.3121 
    106 H106       30.4132   31.2183    5.1748 H         1 UNK         0.0774 
    107 H107       28.9449   32.6882    6.4159 H         1 UNK         0.0815 
    108 H108       27.5813   31.6020    6.2437 H         1 UNK         0.0815 
    109 H109       28.9743   31.1256    7.2172 H         1 UNK         0.0815 
    110 H110       27.4703   30.3835    3.3936 H         1 UNK         0.2987 
    111 H111       27.4814   32.8045    1.7669 H         1 UNK         0.0949 
    112 H112       25.7352   31.6263    0.4594 H         1 UNK         0.0806 
    113 H113       26.0140   30.1434    1.3549 H         1 UNK         0.0806 
    114 H114       25.3687   31.5618    2.1757 H         1 UNK         0.0806 
    115 H115       28.4576   29.3750    1.2792 H         1 UNK         0.3010 
    116 H116       29.6923   29.7792   -1.2893 H         1 UNK         0.0829 
    117 H117       28.9263   27.5423   -0.4859 H         1 UNK         0.0813 
    118 H118       30.6371   27.5032   -0.8766 H         1 UNK         0.0813 
    119 H119       30.1166   27.5633    0.8018 H         1 UNK         0.0813 
    120 H120       31.0019   29.4673    2.0337 H         1 UNK         0.3038 
    121 H121       32.9871   31.4481    1.7884 H         1 UNK         0.0769 
    122 H122       33.9378   28.5176    1.6681 H         1 UNK         0.0811 
    123 H123       34.9832   29.8552    2.1314 H         1 UNK         0.0811 
    124 H124       34.3183   29.7859    0.5109 H         1 UNK         0.0811 
    125 H125       33.9857   31.7410    3.8790 H         1 UNK         0.3204 
    126 H126       32.6179   30.3722    6.1687 H         1 UNK         0.0748 
    127 H127       33.1727   32.4372    7.4291 H         1 UNK         0.0771 
    128 H128       33.9121   33.1496    6.0008 H         1 UNK         0.0771 
    129 H129       32.1812   32.8234    6.0324 H         1 UNK         0.0771 
    130 H130       34.2454   28.6678    5.3606 H         1 UNK         0.2980 
    131 H131       37.0398   29.1433    5.8729 H         1 UNK         0.0545 
    132 H132       34.6082   28.4354    8.1759 H         1 UNK         0.3459 
    133 H133       35.6792   27.7473    9.3704 H         1 UNK         0.3459 
    134 H134       37.3998   26.8457    5.1220 H         1 UNK         0.0616 
    135 H135       36.4030   27.7236    4.0068 H         1 UNK         0.0616 
    136 H136       34.5414   26.4743    2.8534 H         1 UNK         0.0634 
    137 H137       33.6633   27.4759    3.9867 H         1 UNK         0.0634 
@<TRIPOS>BOND
     1    1    2 1    
     2    1   72 1    
     3    1   73 1    
     4    1   74 1    
     5    2    3 2    
     6    2    4 am   BACKBONE|DICT|INTERRES
     7    4    5 1    
     8    4   75 1    
     9    5    6 1    
    10    5   35 1    
    11    5   76 1    
    12    6    7 1    
    13    6   77 1    
    14    6   78 1    
    15    7    8 1    
    16    8    9 1    
    17    8   79 1    
    18    8   80 1    
    19    9   10 ar   
    20    9   14 ar   
    21   10   11 ar   
    22   10   81 1    
    23   11   12 ar   
    24   11   71 1    
    25   12   13 ar   
    26   12   82 1    
    27   13   14 ar   
    28   13   15 1    
    29   14   83 1    
    30   15   16 1    
    31   15   84 1    
    32   15   85 1    
    33   16   17 1    
    34   17   18 1    
    35   17   86 1    
    36   17   87 1    
    37   18   19 1    
    38   18   37 1    
    39   18   88 1    
    40   19   20 am   BACKBONE|DICT|INTERRES
    41   19   89 1    
    42   20   21 2    
    43   20   22 1    
    44   22   23 1    
    45   22   24 1    
    46   22   90 1    
    47   23   91 1    
    48   23   92 1    
    49   23   93 1    
    50   24   25 am   BACKBONE|DICT|INTERRES
    51   24   94 1    
    52   25   26 2    
    53   25   27 1    
    54   27   28 1    
    55   27   29 1    
    56   27   95 1    
    57   28   96 1    
    58   28   97 1    
    59   28   98 1    
    60   29   30 am   BACKBONE|DICT|INTERRES
    61   29   99 1    
    62   30   31 2    
    63   30   32 1    
    64   32   33 1    
    65   32   34 1    
    66   32  100 1    
    67   33  101 1    
    68   33  102 1    
    69   33  103 1    
    70   34   35 am   BACKBONE|DICT|INTERRES
    71   34  104 1    
    72   35   36 2    
    73   37   38 2    
    74   37   39 am   BACKBONE|DICT|INTERRES
    75   39   40 1    
    76   39  105 1    
    77   40   41 1    
    78   40   42 1    
    79   40  106 1    
    80   41  107 1    
    81   41  108 1    
    82   41  109 1    
    83   42   43 2    
    84   42   44 am   BACKBONE|DICT|INTERRES
    85   44   45 1    
    86   44  110 1    
    87   45   46 1    
    88   45   47 1    
    89   45  111 1    
    90   46  112 1    
    91   46  113 1    
    92   46  114 1    
    93   47   48 2    
    94   47   49 am   BACKBONE|DICT|INTERRES
    95   49   50 1    
    96   49  115 1    
    97   50   51 1    
    98   50   52 1    
    99   50  116 1    
   100   51  117 1    
   101   51  118 1    
   102   51  119 1    
   103   52   53 2    
   104   52   54 am   BACKBONE|DICT|INTERRES
   105   54   55 1    
   106   54  120 1    
   107   55   56 1    
   108   55   57 1    
   109   55  121 1    
   110   56  122 1    
   111   56  123 1    
   112   56  124 1    
   113   57   58 2    
   114   57   59 am   BACKBONE|DICT|INTERRES
   115   59   60 1    
   116   59  125 1    
   117   60   61 1    
   118   60   62 1    
   119   60  126 1    
   120   61  127 1    
   121   61  128 1    
   122   61  129 1    
   123   62   63 2    
   124   62   64 am   BACKBONE|DICT|INTERRES
   125   64   65 1    
   126   64  130 1    
   127   65   66 1    
   128   65   69 1    
   129   65  131 1    
   130   66   67 am   BACKBONE|DICT|INTERRES
   131   66   68 2    
   132   67  132 1    
   133   67  133 1    
   134   69   70 1    
   135   69  134 1    
   136   69  135 1    
   137   70   71 1    
   138   71  136 1    
   139   71  137 1    
@<TRIPOS>SUBSTRUCTURE
     1 UNK         1 GROUP             0       ****    0 ROOT    
