@<TRIPOS>MOLECULE
3R136
137   139    1
SMALL
USER_CHARGES


@<TRIPOS>ATOM
      1 CA         27.0861   21.5940    1.3761 C.3       0 UNK        -0.1979 
      2 C          27.8728   22.3133    0.2912 C.2       0 UNK         0.4864 
      3 O          27.7706   21.9506   -0.8816 O.2       0 UNK        -0.5359 
      4 N          28.6428   23.3444    0.6662 N.am      1 UNK        -0.4318 
      5 CA         29.4232   24.1935   -0.2397 C.3       1 UNK         0.0824 
      6 C6         30.3785   25.1324    0.5417 C.3       12 UNK        -0.0944 
      7 S7         31.9466   24.3207    1.0037 S.3       12 UNK        -0.2672 
      8 C8         31.4985   23.1915    2.3660 C.3       12 UNK         0.0333 
      9 C9         30.9629   23.9082    3.5990 C.ar      12 UNK        -0.0807 
     10 C10        31.8005   24.7440    4.3438 C.ar      12 UNK        -0.0894 
     11 C11        31.3354   25.3573    5.5107 C.ar      12 UNK        -0.0804 
     12 C12        30.0124   25.1569    5.9146 C.ar      12 UNK        -0.0824 
     13 C13        29.1647   24.3186    5.1838 C.ar      12 UNK        -0.0762 
     14 C14        29.6522   23.6856    4.0357 C.ar      12 UNK        -0.0782 
     15 C15        27.7454   24.0537    5.6773 C.3       12 UNK         0.0230 
     16 S16        26.4625   24.3867    4.4243 S.3       12 UNK        -0.2608 
     17 C17        26.6830   26.1706    4.1062 C.3       12 UNK        -0.0989 
     18 CA         27.0223   26.4270    2.6140 C.3       5 UNK         0.0716 
     19 N          25.9710   26.0147    1.6723 N.am      5 UNK        -0.4135 
     20 C          24.7391   26.5364    1.5722 C.2       4 UNK         0.5031 
     21 O          24.2653   27.3367    2.3797 O.2       4 UNK        -0.5229 
     22 CA         23.8903   26.1404    0.3521 C.3       4 UNK         0.0329 
     23 CB         23.6255   27.3688   -0.5374 C.3       4 UNK        -0.2001 
     24 N          24.5041   25.0966   -0.4765 N.am      4 UNK        -0.4303 
     25 C          23.8826   23.9803   -0.8843 C.2       3 UNK         0.5044 
     26 O          22.7539   23.6586   -0.5093 O.2       3 UNK        -0.5152 
     27 CA         24.6301   23.0494   -1.8657 C.3       3 UNK         0.0319 
     28 CB         23.7154   22.5536   -3.0059 C.3       3 UNK        -0.2001 
     29 N          25.8867   23.5945   -2.3987 N.am      3 UNK        -0.4354 
     30 C          26.0586   24.6696   -3.1873 C.2       2 UNK         0.4964 
     31 O          25.1288   25.3341   -3.6458 O.2       2 UNK        -0.5047 
     32 CA         27.5151   25.0980   -3.4793 C.3       2 UNK         0.0288 
     33 CB         27.6349   26.6157   -3.7303 C.3       2 UNK        -0.2113 
     34 N          28.4727   24.6636   -2.4498 N.am      2 UNK        -0.4145 
     35 C          28.4535   24.9767   -1.1451 C.2       1 UNK         0.5006 
     36 O          27.6585   25.7700   -0.6319 O.2       1 UNK        -0.5103 
     37 C          27.4652   27.8741    2.3070 C.2       5 UNK         0.5055 
     38 O          27.5246   28.7210    3.1992 O.2       5 UNK        -0.5220 
     39 N          27.7471   28.1252    1.0201 N.am      6 UNK        -0.4450 
     40 CA         28.0605   29.4378    0.4482 C.3       6 UNK         0.0367 
     41 CB         27.7686   29.3912   -1.0605 C.3       6 UNK        -0.1929 
     42 C          29.5007   29.9229    0.7017 C.2       6 UNK         0.5070 
     43 O          29.8580   31.0016    0.2270 O.2       6 UNK        -0.5237 
     44 N          30.3097   29.1448    1.4322 N.am      7 UNK        -0.4739 
     45 CA         31.7169   29.3996    1.7674 C.3       7 UNK         0.0276 
     46 CB         32.3486   28.0637    2.2061 C.3       7 UNK        -0.1927 
     47 C          31.9354   30.5426    2.7893 C.2       7 UNK         0.5013 
     48 O          32.7633   30.4170    3.6950 O.2       7 UNK        -0.5193 
     49 N          31.2081   31.6547    2.6213 N.am      8 UNK        -0.4253 
     50 CA         31.2660   32.8630    3.4454 C.3       8 UNK         0.0242 
     51 CB         30.2519   33.8896    2.9150 C.3       8 UNK        -0.2000 
     52 C          32.6845   33.4537    3.4803 C.2       8 UNK         0.4948 
     53 O          33.2333   33.7761    2.4250 O.2       8 UNK        -0.5275 
     54 N          33.2565   33.5233    4.6902 N.am      9 UNK        -0.4246 
     55 CA         34.6340   33.9170    5.0209 C.3       9 UNK         0.0261 
     56 CB         34.9386   35.3570    4.5550 C.3       9 UNK        -0.1959 
     57 C          35.7260   32.9229    4.5670 C.2       9 UNK         0.5033 
     58 O          36.8968   33.1628    4.8680 O.2       9 UNK        -0.5390 
     59 N          35.3531   31.8245    3.8944 N.am      10 UNK        -0.4215 
     60 CA         36.2504   30.7234    3.5368 C.3       10 UNK         0.0240 
     61 CB         35.8903   30.1876    2.1420 C.3       10 UNK        -0.1982 
     62 C          36.2179   29.6087    4.5960 C.2       10 UNK         0.4970 
     63 O          37.2332   28.9349    4.7765 O.2       10 UNK        -0.4916 
     64 N          35.0823   29.4492    5.2936 N.am      11 UNK        -0.4279 
     65 CA         34.9327   28.6024    6.4882 C.3       11 UNK         0.1003 
     66 C          35.9178   28.9922    7.6265 C.2       11 UNK         0.5709 
     67 N          36.4807   28.0153    8.3248 N.am      11 UNK        -0.7358 
     68 O          36.1372   30.1692    7.9088 O.2       11 UNK        -0.4999 
     69 C69        33.4786   28.6241    7.0293 C.3       12 UNK        -0.0954 
     70 S70        32.2652   27.9356    5.8601 S.3       12 UNK        -0.2268 
     71 C71        32.2759   26.1933    6.3636 C.3       12 UNK         0.0203 
     72 H72        27.0613   22.1587    2.3072 H         1 UNK         0.0888 
     73 H73        26.0568   21.4396    1.0537 H         1 UNK         0.0888 
     74 H74        27.5296   20.6192    1.5766 H         1 UNK         0.0888 
     75 H75        28.6717   23.6115    1.6369 H         1 UNK         0.3017 
     76 H76        30.0250   23.5402   -0.8758 H         1 UNK         0.0873 
     77 H77        29.9100   25.5502    1.4318 H         1 UNK         0.0745 
     78 H78        30.6571   25.9919   -0.0719 H         1 UNK         0.0745 
     79 H79        30.7947   22.4419    2.0042 H         1 UNK         0.0705 
     80 H80        32.3927   22.6363    2.6527 H         1 UNK         0.0705 
     81 H81        32.8226   24.8990    4.0254 H         1 UNK         0.1334 
     82 H82        29.6541   25.6321    6.8179 H         1 UNK         0.1417 
     83 H83        29.0108   23.0004    3.5023 H         1 UNK         0.1562 
     84 H84        27.5245   24.6473    6.5660 H         1 UNK         0.0748 
     85 H85        27.6714   23.0093    5.9829 H         1 UNK         0.0748 
     86 H86        27.4773   26.5538    4.7493 H         1 UNK         0.0940 
     87 H87        25.7780   26.7009    4.4048 H         1 UNK         0.0940 
     88 H88        27.8876   25.8087    2.3814 H         1 UNK         0.0703 
     89 H89        26.2834   25.4084    0.9273 H         1 UNK         0.3081 
     90 H90        22.9340   25.7964    0.7512 H         1 UNK         0.0719 
     91 H91        23.1458   28.1702    0.0263 H         1 UNK         0.0809 
     92 H92        24.5501   27.7693   -0.9549 H         1 UNK         0.0809 
     93 H93        22.9653   27.1195   -1.3684 H         1 UNK         0.0809 
     94 H94        25.4202   25.2974   -0.8568 H         1 UNK         0.2990 
     95 H95        24.9169   22.1759   -1.2789 H         1 UNK         0.0690 
     96 H96        24.2487   21.8824   -3.6789 H         1 UNK         0.0788 
     97 H97        23.3195   23.3791   -3.5980 H         1 UNK         0.0788 
     98 H98        22.8615   22.0013   -2.6117 H         1 UNK         0.0788 
     99 H99        26.7175   23.1088   -2.0692 H         1 UNK         0.2993 
    100 H100       27.8011   24.5856   -4.3991 H         1 UNK         0.0949 
    101 H101       27.2128   27.1901   -2.9065 H         1 UNK         0.0767 
    102 H102       28.6729   26.9212   -3.8614 H         1 UNK         0.0767 
    103 H103       27.0953   26.9054   -4.6328 H         1 UNK         0.0767 
    104 H104       29.1438   23.9724   -2.7575 H         1 UNK         0.3013 
    105 H105       27.6857   27.3537    0.3588 H         1 UNK         0.3121 
    106 H106       27.3928   30.1740    0.9007 H         1 UNK         0.0774 
    107 H107       28.4456   28.7081   -1.5745 H         1 UNK         0.0815 
    108 H108       26.7460   29.0714   -1.2603 H         1 UNK         0.0815 
    109 H109       27.8919   30.3746   -1.5163 H         1 UNK         0.0815 
    110 H110       29.9086   28.3055    1.8214 H         1 UNK         0.2987 
    111 H111       32.2272   29.7189    0.8563 H         1 UNK         0.0949 
    112 H112       32.3846   27.3582    1.3768 H         1 UNK         0.0806 
    113 H113       33.3715   28.1836    2.5618 H         1 UNK         0.0806 
    114 H114       31.7810   27.5970    3.0108 H         1 UNK         0.0806 
    115 H115       30.6058   31.6827    1.8030 H         1 UNK         0.3010 
    116 H116       30.9688   32.5807    4.4576 H         1 UNK         0.0829 
    117 H117       30.4721   34.1785    1.8862 H         1 UNK         0.0813 
    118 H118       30.2632   34.7980    3.5189 H         1 UNK         0.0813 
    119 H119       29.2360   33.4950    2.9417 H         1 UNK         0.0813 
    120 H120       32.7105   33.2052    5.4798 H         1 UNK         0.3038 
    121 H121       34.6787   33.9164    6.1112 H         1 UNK         0.0769 
    122 H122       34.1796   36.0571    4.9037 H         1 UNK         0.0811 
    123 H123       34.9927   35.4320    3.4687 H         1 UNK         0.0811 
    124 H124       35.8971   35.6991    4.9475 H         1 UNK         0.0811 
    125 H125       34.3665   31.6766    3.7094 H         1 UNK         0.3204 
    126 H126       37.2784   31.0891    3.4875 H         1 UNK         0.0748 
    127 H127       34.8597   29.8442    2.0892 H         1 UNK         0.0771 
    128 H128       36.0217   30.9569    1.3809 H         1 UNK         0.0771 
    129 H129       36.5303   29.3477    1.8680 H         1 UNK         0.0771 
    130 H130       34.2578   29.9674    5.0133 H         1 UNK         0.2980 
    131 H131       35.1674   27.5820    6.1794 H         1 UNK         0.0545 
    132 H132       36.2992   27.0472    8.1101 H         1 UNK         0.3459 
    133 H133       37.1089   28.2514    9.0771 H         1 UNK         0.3459 
    134 H134       33.1773   29.6473    7.2618 H         1 UNK         0.0616 
    135 H135       33.4032   28.0694    7.9667 H         1 UNK         0.0616 
    136 H136       31.9926   26.1187    7.4147 H         1 UNK         0.0634 
    137 H137       33.2920   25.8029    6.2892 H         1 UNK         0.0634 
@<TRIPOS>BOND
     1    1    2 1    
     2    1   72 1    
     3    1   73 1    
     4    1   74 1    
     5    2    3 2    
     6    2    4 am   BACKBONE|DICT|INTERRES
     7    4    5 1    
     8    4   75 1    
     9    5    6 1    
    10    5   35 1    
    11    5   76 1    
    12    6    7 1    
    13    6   77 1    
    14    6   78 1    
    15    7    8 1    
    16    8    9 1    
    17    8   79 1    
    18    8   80 1    
    19    9   10 ar   
    20    9   14 ar   
    21   10   11 ar   
    22   10   81 1    
    23   11   12 ar   
    24   11   71 1    
    25   12   13 ar   
    26   12   82 1    
    27   13   14 ar   
    28   13   15 1    
    29   14   83 1    
    30   15   16 1    
    31   15   84 1    
    32   15   85 1    
    33   16   17 1    
    34   17   18 1    
    35   17   86 1    
    36   17   87 1    
    37   18   19 1    
    38   18   37 1    
    39   18   88 1    
    40   19   20 am   BACKBONE|DICT|INTERRES
    41   19   89 1    
    42   20   21 2    
    43   20   22 1    
    44   22   23 1    
    45   22   24 1    
    46   22   90 1    
    47   23   91 1    
    48   23   92 1    
    49   23   93 1    
    50   24   25 am   BACKBONE|DICT|INTERRES
    51   24   94 1    
    52   25   26 2    
    53   25   27 1    
    54   27   28 1    
    55   27   29 1    
    56   27   95 1    
    57   28   96 1    
    58   28   97 1    
    59   28   98 1    
    60   29   30 am   BACKBONE|DICT|INTERRES
    61   29   99 1    
    62   30   31 2    
    63   30   32 1    
    64   32   33 1    
    65   32   34 1    
    66   32  100 1    
    67   33  101 1    
    68   33  102 1    
    69   33  103 1    
    70   34   35 am   BACKBONE|DICT|INTERRES
    71   34  104 1    
    72   35   36 2    
    73   37   38 2    
    74   37   39 am   BACKBONE|DICT|INTERRES
    75   39   40 1    
    76   39  105 1    
    77   40   41 1    
    78   40   42 1    
    79   40  106 1    
    80   41  107 1    
    81   41  108 1    
    82   41  109 1    
    83   42   43 2    
    84   42   44 am   BACKBONE|DICT|INTERRES
    85   44   45 1    
    86   44  110 1    
    87   45   46 1    
    88   45   47 1    
    89   45  111 1    
    90   46  112 1    
    91   46  113 1    
    92   46  114 1    
    93   47   48 2    
    94   47   49 am   BACKBONE|DICT|INTERRES
    95   49   50 1    
    96   49  115 1    
    97   50   51 1    
    98   50   52 1    
    99   50  116 1    
   100   51  117 1    
   101   51  118 1    
   102   51  119 1    
   103   52   53 2    
   104   52   54 am   BACKBONE|DICT|INTERRES
   105   54   55 1    
   106   54  120 1    
   107   55   56 1    
   108   55   57 1    
   109   55  121 1    
   110   56  122 1    
   111   56  123 1    
   112   56  124 1    
   113   57   58 2    
   114   57   59 am   BACKBONE|DICT|INTERRES
   115   59   60 1    
   116   59  125 1    
   117   60   61 1    
   118   60   62 1    
   119   60  126 1    
   120   61  127 1    
   121   61  128 1    
   122   61  129 1    
   123   62   63 2    
   124   62   64 am   BACKBONE|DICT|INTERRES
   125   64   65 1    
   126   64  130 1    
   127   65   66 1    
   128   65   69 1    
   129   65  131 1    
   130   66   67 am   BACKBONE|DICT|INTERRES
   131   66   68 2    
   132   67  132 1    
   133   67  133 1    
   134   69   70 1    
   135   69  134 1    
   136   69  135 1    
   137   70   71 1    
   138   71  136 1    
   139   71  137 1    
@<TRIPOS>SUBSTRUCTURE
     1 UNK         1 GROUP             0       ****    0 ROOT    
