@<TRIPOS>MOLECULE
3R136
137   139    1
SMALL
USER_CHARGES


@<TRIPOS>ATOM
      1 CA         33.3056   22.4631    0.8422 C.3       0 UNK        -0.1979 
      2 C          31.9157   23.0317    0.6040 C.2       0 UNK         0.4864 
      3 O          31.7905   24.1625    0.1370 O.2       0 UNK        -0.5359 
      4 N          30.8722   22.2427    0.8991 N.am      1 UNK        -0.4318 
      5 CA         29.4463   22.6074    0.8510 C.3       1 UNK         0.0824 
      6 C6         28.5264   21.4047    1.1969 C.3       12 UNK        -0.0944 
      7 S7         29.0895   20.4248    2.6325 S.3       12 UNK        -0.2672 
      8 C8         27.8853   20.8848    3.9193 C.3       12 UNK         0.0333 
      9 C9         28.0369   22.3232    4.4006 C.ar      12 UNK        -0.0807 
     10 C10        29.2852   22.8166    4.7966 C.ar      12 UNK        -0.0894 
     11 C11        29.4182   24.1267    5.2664 C.ar      12 UNK        -0.0804 
     12 C12        28.2780   24.9254    5.3912 C.ar      12 UNK        -0.0824 
     13 C13        27.0264   24.4529    4.9875 C.ar      12 UNK        -0.0762 
     14 C14        26.9139   23.1522    4.4870 C.ar      12 UNK        -0.0782 
     15 C15        25.7917   25.3366    5.1078 C.3       12 UNK         0.0230 
     16 S16        25.6261   26.4766    3.6943 S.3       12 UNK        -0.2608 
     17 C17        26.7118   27.8639    4.1798 C.3       12 UNK        -0.0989 
     18 CA         28.0639   27.8615    3.4186 C.3       5 UNK         0.0716 
     19 N          27.8494   27.9657    1.9722 N.am      5 UNK        -0.4135 
     20 C          28.7745   27.7923    1.0217 C.2       4 UNK         0.5031 
     21 O          29.9773   27.6461    1.2443 O.2       4 UNK        -0.5229 
     22 CA         28.2298   27.7188   -0.4138 C.3       4 UNK         0.0329 
     23 CB         27.7680   29.0936   -0.9427 C.3       4 UNK        -0.2001 
     24 N          29.1757   27.0305   -1.3001 N.am      4 UNK        -0.4303 
     25 C          30.2326   27.5162   -1.9718 C.2       3 UNK         0.5044 
     26 O          30.4776   28.7126   -2.1208 O.2       3 UNK        -0.5152 
     27 CA         31.1990   26.4927   -2.6016 C.3       3 UNK         0.0319 
     28 CB         32.5945   26.6087   -1.9641 C.3       3 UNK        -0.2001 
     29 N          30.7300   25.1080   -2.4841 N.am      3 UNK        -0.4354 
     30 C          29.8151   24.5529   -3.2942 C.2       2 UNK         0.4964 
     31 O          29.3314   25.1333   -4.2666 O.2       2 UNK        -0.5047 
     32 CA         29.3354   23.1237   -2.9764 C.3       2 UNK         0.0288 
     33 CB         29.9900   22.1135   -3.9332 C.3       2 UNK        -0.2113 
     34 N          29.5734   22.6920   -1.5971 N.am      2 UNK        -0.4145 
     35 C          29.0084   23.2181   -0.4993 C.2       1 UNK         0.5006 
     36 O          28.2050   24.1521   -0.5229 O.2       1 UNK        -0.5103 
     37 C          29.0191   28.9317    3.9903 C.2       5 UNK         0.5055 
     38 O          29.3557   29.9053    3.3121 O.2       5 UNK        -0.5220 
     39 N          29.4087   28.7498    5.2618 N.am      6 UNK        -0.4450 
     40 CA         30.3136   29.6189    6.0224 C.3       6 UNK         0.0367 
     41 CB         30.4778   29.0710    7.4482 C.3       6 UNK        -0.1929 
     42 C          29.9047   31.1011    6.0514 C.2       6 UNK         0.5070 
     43 O          30.7620   31.9692    5.8936 O.2       6 UNK        -0.5237 
     44 N          28.5999   31.3599    6.2007 N.am      7 UNK        -0.4739 
     45 CA         28.0198   32.7055    6.1824 C.3       7 UNK         0.0276 
     46 CB         26.6116   32.6468    6.7973 C.3       7 UNK        -0.1927 
     47 C          27.9655   33.3427    4.7800 C.2       7 UNK         0.5013 
     48 O          27.8149   34.5619    4.6893 O.2       7 UNK        -0.5193 
     49 N          28.0597   32.5237    3.7236 N.am      8 UNK        -0.4253 
     50 CA         27.9654   32.9508    2.3291 C.3       8 UNK         0.0242 
     51 CB         27.1262   31.9317    1.5384 C.3       8 UNK        -0.2000 
     52 C          29.3496   33.1203    1.6895 C.2       8 UNK         0.4948 
     53 O          29.5882   34.1444    1.0477 O.2       8 UNK        -0.5275 
     54 N          30.2239   32.1167    1.8467 N.am      9 UNK        -0.4246 
     55 CA         31.4986   32.0228    1.1300 C.3       9 UNK         0.0261 
     56 CB         31.2571   31.3885   -0.2529 C.3       9 UNK        -0.1959 
     57 C          32.5790   31.2743    1.9276 C.2       9 UNK         0.5033 
     58 O          33.4418   30.6355    1.3209 O.2       9 UNK        -0.5390 
     59 N          32.5271   31.3482    3.2676 N.am      10 UNK        -0.4215 
     60 CA         33.5144   30.7960    4.2134 C.3       10 UNK         0.0240 
     61 CB         34.8474   31.5677    4.1026 C.3       10 UNK        -0.1982 
     62 C          33.7241   29.2666    4.1227 C.2       10 UNK         0.4970 
     63 O          34.7444   28.7699    4.6023 O.2       10 UNK        -0.4916 
     64 N          32.7647   28.5495    3.5195 N.am      11 UNK        -0.4279 
     65 CA         32.8506   27.1224    3.1763 C.3       11 UNK         0.1003 
     66 C          33.9328   26.8019    2.0957 C.2       11 UNK         0.5709 
     67 N          34.3271   27.7579    1.2593 N.am      11 UNK        -0.7358 
     68 O          34.4304   25.6824    2.0082 O.2       11 UNK        -0.4999 
     69 C69        32.9004   26.2007    4.4341 C.3       12 UNK        -0.0954 
     70 S70        31.9103   24.6840    4.1955 S.3       12 UNK        -0.2268 
     71 C71        30.7888   24.6811    5.6347 C.3       12 UNK         0.0203 
     72 H72        33.7987   23.0150    1.6421 H         1 UNK         0.0888 
     73 H73        33.2743   21.4107    1.1234 H         1 UNK         0.0888 
     74 H74        33.9102   22.5572   -0.0594 H         1 UNK         0.0888 
     75 H75        31.0483   21.3256    1.2857 H         1 UNK         0.3017 
     76 H76        29.3015   23.3766    1.6130 H         1 UNK         0.0873 
     77 H77        28.4671   20.7128    0.3541 H         1 UNK         0.0745 
     78 H78        27.5056   21.7506    1.3712 H         1 UNK         0.0745 
     79 H79        28.0210   20.2204    4.7735 H         1 UNK         0.0705 
     80 H80        26.8778   20.6984    3.5438 H         1 UNK         0.0705 
     81 H81        30.1606   22.1858    4.7233 H         1 UNK         0.1334 
     82 H82        28.3639   25.9232    5.7923 H         1 UNK         0.1417 
     83 H83        25.9451   22.7793    4.1824 H         1 UNK         0.1562 
     84 H84        25.8109   25.8927    6.0462 H         1 UNK         0.0748 
     85 H85        24.8958   24.7154    5.1522 H         1 UNK         0.0748 
     86 H86        26.8534   27.8323    5.2608 H         1 UNK         0.0940 
     87 H87        26.1737   28.7943    3.9859 H         1 UNK         0.0940 
     88 H88        28.5572   26.9018    3.5759 H         1 UNK         0.0703 
     89 H89        26.8873   28.0762    1.6893 H         1 UNK         0.3081 
     90 H90        27.3549   27.0669   -0.3882 H         1 UNK         0.0719 
     91 H91        28.5404   29.8548   -0.8292 H         1 UNK         0.0809 
     92 H92        27.4944   29.0447   -1.9966 H         1 UNK         0.0809 
     93 H93        26.8913   29.4457   -0.3991 H         1 UNK         0.0809 
     94 H94        29.1087   26.0211   -1.2468 H         1 UNK         0.2990 
     95 H95        31.2937   26.7430   -3.6603 H         1 UNK         0.0690 
     96 H96        33.2884   25.8788   -2.3808 H         1 UNK         0.0788 
     97 H97        32.5561   26.4603   -0.8842 H         1 UNK         0.0788 
     98 H98        33.0205   27.5981   -2.1357 H         1 UNK         0.0788 
     99 H99        31.0669   24.5924   -1.6746 H         1 UNK         0.2993 
    100 H100       28.2563   23.1060   -3.1444 H         1 UNK         0.0949 
    101 H101       29.5908   21.1096   -3.7859 H         1 UNK         0.0767 
    102 H102       29.8043   22.3832   -4.9740 H         1 UNK         0.0767 
    103 H103       31.0713   22.0703   -3.7958 H         1 UNK         0.0767 
    104 H104       30.2381   21.9429   -1.4684 H         1 UNK         0.3013 
    105 H105       29.0756   27.9375    5.7564 H         1 UNK         0.3121 
    106 H106       31.2843   29.5642    5.5393 H         1 UNK         0.0774 
    107 H107       29.5285   29.0420    7.9845 H         1 UNK         0.0815 
    108 H108       30.8930   28.0630    7.4422 H         1 UNK         0.0815 
    109 H109       31.1599   29.6940    8.0289 H         1 UNK         0.0815 
    110 H110       27.9628   30.5867    6.3251 H         1 UNK         0.2987 
    111 H111       28.6382   33.3548    6.8067 H         1 UNK         0.0949 
    112 H112       25.9442   32.0060    6.2196 H         1 UNK         0.0806 
    113 H113       26.6396   32.2700    7.8200 H         1 UNK         0.0806 
    114 H114       26.1592   33.6390    6.8332 H         1 UNK         0.0806 
    115 H115       28.2625   31.5444    3.8829 H         1 UNK         0.3010 
    116 H116       27.4529   33.9138    2.2698 H         1 UNK         0.0829 
    117 H117       26.1146   31.8586    1.9376 H         1 UNK         0.0813 
    118 H118       27.0410   32.2250    0.4911 H         1 UNK         0.0813 
    119 H119       27.5670   30.9352    1.5621 H         1 UNK         0.0813 
    120 H120       29.9388   31.2924    2.3775 H         1 UNK         0.3038 
    121 H121       31.8971   33.0279    0.9779 H         1 UNK         0.0769 
    122 H122       32.1711   31.3633   -0.8475 H         1 UNK         0.0811 
    123 H123       30.5154   31.9415   -0.8290 H         1 UNK         0.0811 
    124 H124       30.9058   30.3616   -0.1501 H         1 UNK         0.0811 
    125 H125       31.7743   31.8785    3.6892 H         1 UNK         0.3204 
    126 H126       33.1240   30.9852    5.2131 H         1 UNK         0.0748 
    127 H127       35.5382   31.2784    4.8956 H         1 UNK         0.0771 
    128 H128       35.3469   31.3778    3.1519 H         1 UNK         0.0771 
    129 H129       34.6916   32.6429    4.1910 H         1 UNK         0.0771 
    130 H130       31.9743   29.0397    3.1254 H         1 UNK         0.2980 
    131 H131       31.9092   26.9235    2.6691 H         1 UNK         0.0545 
    132 H132       35.0264   27.5434    0.5678 H         1 UNK         0.3459 
    133 H133       33.9484   28.6979    1.3194 H         1 UNK         0.3459 
    134 H134       32.5206   26.7332    5.3064 H         1 UNK         0.0616 
    135 H135       33.9258   25.9259    4.6871 H         1 UNK         0.0616 
    136 H136       30.6882   25.6907    6.0338 H         1 UNK         0.0634 
    137 H137       31.2277   24.0758    6.4289 H         1 UNK         0.0634 
@<TRIPOS>BOND
     1    1    2 1    
     2    1   72 1    
     3    1   73 1    
     4    1   74 1    
     5    2    3 2    
     6    2    4 am   BACKBONE|DICT|INTERRES
     7    4    5 1    
     8    4   75 1    
     9    5    6 1    
    10    5   35 1    
    11    5   76 1    
    12    6    7 1    
    13    6   77 1    
    14    6   78 1    
    15    7    8 1    
    16    8    9 1    
    17    8   79 1    
    18    8   80 1    
    19    9   10 ar   
    20    9   14 ar   
    21   10   11 ar   
    22   10   81 1    
    23   11   12 ar   
    24   11   71 1    
    25   12   13 ar   
    26   12   82 1    
    27   13   14 ar   
    28   13   15 1    
    29   14   83 1    
    30   15   16 1    
    31   15   84 1    
    32   15   85 1    
    33   16   17 1    
    34   17   18 1    
    35   17   86 1    
    36   17   87 1    
    37   18   19 1    
    38   18   37 1    
    39   18   88 1    
    40   19   20 am   BACKBONE|DICT|INTERRES
    41   19   89 1    
    42   20   21 2    
    43   20   22 1    
    44   22   23 1    
    45   22   24 1    
    46   22   90 1    
    47   23   91 1    
    48   23   92 1    
    49   23   93 1    
    50   24   25 am   BACKBONE|DICT|INTERRES
    51   24   94 1    
    52   25   26 2    
    53   25   27 1    
    54   27   28 1    
    55   27   29 1    
    56   27   95 1    
    57   28   96 1    
    58   28   97 1    
    59   28   98 1    
    60   29   30 am   BACKBONE|DICT|INTERRES
    61   29   99 1    
    62   30   31 2    
    63   30   32 1    
    64   32   33 1    
    65   32   34 1    
    66   32  100 1    
    67   33  101 1    
    68   33  102 1    
    69   33  103 1    
    70   34   35 am   BACKBONE|DICT|INTERRES
    71   34  104 1    
    72   35   36 2    
    73   37   38 2    
    74   37   39 am   BACKBONE|DICT|INTERRES
    75   39   40 1    
    76   39  105 1    
    77   40   41 1    
    78   40   42 1    
    79   40  106 1    
    80   41  107 1    
    81   41  108 1    
    82   41  109 1    
    83   42   43 2    
    84   42   44 am   BACKBONE|DICT|INTERRES
    85   44   45 1    
    86   44  110 1    
    87   45   46 1    
    88   45   47 1    
    89   45  111 1    
    90   46  112 1    
    91   46  113 1    
    92   46  114 1    
    93   47   48 2    
    94   47   49 am   BACKBONE|DICT|INTERRES
    95   49   50 1    
    96   49  115 1    
    97   50   51 1    
    98   50   52 1    
    99   50  116 1    
   100   51  117 1    
   101   51  118 1    
   102   51  119 1    
   103   52   53 2    
   104   52   54 am   BACKBONE|DICT|INTERRES
   105   54   55 1    
   106   54  120 1    
   107   55   56 1    
   108   55   57 1    
   109   55  121 1    
   110   56  122 1    
   111   56  123 1    
   112   56  124 1    
   113   57   58 2    
   114   57   59 am   BACKBONE|DICT|INTERRES
   115   59   60 1    
   116   59  125 1    
   117   60   61 1    
   118   60   62 1    
   119   60  126 1    
   120   61  127 1    
   121   61  128 1    
   122   61  129 1    
   123   62   63 2    
   124   62   64 am   BACKBONE|DICT|INTERRES
   125   64   65 1    
   126   64  130 1    
   127   65   66 1    
   128   65   69 1    
   129   65  131 1    
   130   66   67 am   BACKBONE|DICT|INTERRES
   131   66   68 2    
   132   67  132 1    
   133   67  133 1    
   134   69   70 1    
   135   69  134 1    
   136   69  135 1    
   137   70   71 1    
   138   71  136 1    
   139   71  137 1    
@<TRIPOS>SUBSTRUCTURE
     1 UNK         1 GROUP             0       ****    0 ROOT    
