@<TRIPOS>MOLECULE
3R136
137   139    1
SMALL
USER_CHARGES


@<TRIPOS>ATOM
      1 CA         27.1748   17.9525    1.9203 C.3       0 UNK        -0.1979 
      2 C          27.0921   19.3505    1.3265 C.2       0 UNK         0.4864 
      3 O          26.1754   19.6360    0.5532 O.2       0 UNK        -0.5359 
      4 N          28.0345   20.2318    1.6863 N.am      1 UNK        -0.4318 
      5 CA         28.1390   21.6177    1.2121 C.3       1 UNK         0.0824 
      6 C6         29.5770   22.1729    1.3749 C.3       12 UNK        -0.0944 
      7 S7         30.8157   21.2427    0.4164 S.3       12 UNK        -0.2672 
      8 C8         32.3524   21.7744    1.2394 C.3       12 UNK         0.0333 
      9 C9         32.5293   23.2873    1.2017 C.ar      12 UNK        -0.0807 
     10 C10        32.4262   24.0426    2.3733 C.ar      12 UNK        -0.0894 
     11 C11        32.5820   25.4331    2.3523 C.ar      12 UNK        -0.0804 
     12 C12        32.8312   26.0670    1.1249 C.ar      12 UNK        -0.0824 
     13 C13        32.9573   25.3193   -0.0508 C.ar      12 UNK        -0.0762 
     14 C14        32.8051   23.9315   -0.0053 C.ar      12 UNK        -0.0782 
     15 C15        33.3014   25.9901   -1.3717 C.3       12 UNK         0.0230 
     16 S16        31.8440   26.1582   -2.4481 S.3       12 UNK        -0.2608 
     17 C17        31.3090   27.8650   -2.0946 C.3       12 UNK        -0.0989 
     18 CA         29.7691   27.9774   -1.9245 C.3       5 UNK         0.0716 
     19 N          29.2685   27.2043   -0.7762 N.am      5 UNK        -0.4135 
     20 C          29.4571   27.4841    0.5234 C.2       4 UNK         0.5031 
     21 O          30.1258   28.4395    0.9184 O.2       4 UNK        -0.5229 
     22 CA         28.7004   26.6015    1.5406 C.3       4 UNK         0.0329 
     23 CB         28.5271   27.2980    2.9043 C.3       4 UNK        -0.2001 
     24 N          27.3928   26.1183    1.0674 N.am      4 UNK        -0.4303 
     25 C          26.3858   26.8460    0.5522 C.2       3 UNK         0.5044 
     26 O          26.4455   28.0631    0.3719 O.2       3 UNK        -0.5152 
     27 CA         25.1161   26.0972    0.1048 C.3       3 UNK         0.0319 
     28 CB         25.0570   26.0289   -1.4305 C.3       3 UNK        -0.2001 
     29 N          25.0197   24.7381    0.6437 N.am      3 UNK        -0.4354 
     30 C          24.5896   24.4374    1.8773 C.2       2 UNK         0.4964 
     31 O          24.1623   25.2703    2.6771 O.2       2 UNK        -0.5047 
     32 CA         24.6719   22.9581    2.2992 C.3       2 UNK         0.0288 
     33 CB         23.3659   22.2239    1.9551 C.3       2 UNK        -0.2113 
     34 N          25.8055   22.2296    1.7152 N.am      2 UNK        -0.4145 
     35 C          27.0983   22.5328    1.8967 C.2       1 UNK         0.5006 
     36 O          27.4735   23.4972    2.5656 O.2       1 UNK        -0.5103 
     37 C          29.2933   29.4549   -1.9317 C.2       5 UNK         0.5055 
     38 O          29.9358   30.2913   -2.5693 O.2       5 UNK        -0.5220 
     39 N          28.1990   29.7617   -1.2123 N.am      6 UNK        -0.4450 
     40 CA         27.6945   31.1037   -0.8918 C.3       6 UNK         0.0367 
     41 CB         27.1879   31.8273   -2.1576 C.3       6 UNK        -0.1929 
     42 C          28.6895   31.9562   -0.0706 C.2       6 UNK         0.5070 
     43 O          28.5950   33.1843   -0.0871 O.2       6 UNK        -0.5237 
     44 N          29.6123   31.2993    0.6449 N.am      7 UNK        -0.4739 
     45 CA         30.6629   31.9046    1.4632 C.3       7 UNK         0.0276 
     46 CB         32.0281   31.6064    0.8140 C.3       7 UNK        -0.1927 
     47 C          30.5791   31.3772    2.9046 C.2       7 UNK         0.5013 
     48 O          31.6151   31.1670    3.5372 O.2       7 UNK        -0.5193 
     49 N          29.3456   31.1637    3.3905 N.am      8 UNK        -0.4253 
     50 CA         29.0106   30.6073    4.7054 C.3       8 UNK         0.0242 
     51 CB         27.4878   30.6637    4.9067 C.3       8 UNK        -0.2000 
     52 C          29.7348   31.3092    5.8659 C.2       8 UNK         0.4948 
     53 O          29.8434   32.5381    5.8680 O.2       8 UNK        -0.5275 
     54 N          30.2499   30.5040    6.8041 N.am      9 UNK        -0.4246 
     55 CA         31.1247   30.8554    7.9318 C.3       9 UNK         0.0261 
     56 CB         30.4737   31.8821    8.8800 C.3       9 UNK        -0.1959 
     57 C          32.5400   31.2947    7.5110 C.2       9 UNK         0.5033 
     58 O          33.5060   30.8404    8.1254 O.2       9 UNK        -0.5390 
     59 N          32.6567   32.1290    6.4683 N.am      10 UNK        -0.4215 
     60 CA         33.9236   32.6098    5.9062 C.3       10 UNK         0.0240 
     61 CB         33.6518   33.6842    4.8406 C.3       10 UNK        -0.1982 
     62 C          34.8088   31.4824    5.3448 C.2       10 UNK         0.4970 
     63 O          36.0268   31.5368    5.5207 O.2       10 UNK        -0.4916 
     64 N          34.1894   30.4697    4.7236 N.am      11 UNK        -0.4279 
     65 CA         34.8462   29.2203    4.3064 C.3       11 UNK         0.1003 
     66 C          35.2382   28.2527    5.4652 C.2       11 UNK         0.5709 
     67 N          34.9032   28.5251    6.7218 N.am      11 UNK        -0.7358 
     68 O          35.8804   27.2343    5.2194 O.2       11 UNK        -0.4999 
     69 C69        34.0672   28.5046    3.1706 C.3       12 UNK        -0.0954 
     70 S70        32.3713   27.9939    3.6196 S.3       12 UNK        -0.2268 
     71 C71        32.5047   26.1755    3.6912 C.3       12 UNK         0.0203 
     72 H72        26.2736   17.7342    2.4926 H         1 UNK         0.0888 
     73 H73        27.2619   17.2126    1.1252 H         1 UNK         0.0888 
     74 H74        28.0332   17.8410    2.5825 H         1 UNK         0.0888 
     75 H75        28.7559   19.9438    2.3319 H         1 UNK         0.3017 
     76 H76        27.9050   21.6300    0.1452 H         1 UNK         0.0873 
     77 H77        29.6268   23.2112    1.0400 H         1 UNK         0.0745 
     78 H78        29.8690   22.1747    2.4271 H         1 UNK         0.0745 
     79 H79        32.3517   21.4082    2.2673 H         1 UNK         0.0705 
     80 H80        33.2013   21.2991    0.7461 H         1 UNK         0.0705 
     81 H81        32.2287   23.5435    3.3124 H         1 UNK         0.1334 
     82 H82        32.9449   27.1398    1.0732 H         1 UNK         0.1417 
     83 H83        32.8956   23.3505   -0.9135 H         1 UNK         0.1562 
     84 H84        34.0459   25.3866   -1.8933 H         1 UNK         0.0748 
     85 H85        33.7715   26.9610   -1.2082 H         1 UNK         0.0748 
     86 H86        31.6599   28.4760   -2.9283 H         1 UNK         0.0940 
     87 H87        31.8151   28.2480   -1.2067 H         1 UNK         0.0940 
     88 H88        29.3065   27.5320   -2.8065 H         1 UNK         0.0703 
     89 H89        28.6985   26.4042   -1.0071 H         1 UNK         0.3081 
     90 H90        29.3225   25.7185    1.6957 H         1 UNK         0.0719 
     91 H91        29.4935   27.5491    3.3392 H         1 UNK         0.0809 
     92 H92        27.9585   28.2234    2.8110 H         1 UNK         0.0809 
     93 H93        28.0111   26.6537    3.6161 H         1 UNK         0.0809 
     94 H94        27.2241   25.1337    1.2326 H         1 UNK         0.2990 
     95 H95        24.2580   26.6773    0.4515 H         1 UNK         0.0690 
     96 H96        24.1309   25.5650   -1.7707 H         1 UNK         0.0788 
     97 H97        25.8900   25.4594   -1.8446 H         1 UNK         0.0788 
     98 H98        25.0950   27.0275   -1.8687 H         1 UNK         0.0788 
     99 H99        25.3266   23.9844    0.0457 H         1 UNK         0.2993 
    100 H100       24.7987   22.9409    3.3839 H         1 UNK         0.0949 
    101 H101       22.5054   22.7282    2.3975 H         1 UNK         0.0767 
    102 H102       23.2002   22.1781    0.8780 H         1 UNK         0.0767 
    103 H103       23.3729   21.2027    2.3371 H         1 UNK         0.0767 
    104 H104       25.5981   21.3896    1.1807 H         1 UNK         0.3013 
    105 H105       27.7203   29.0110   -0.7192 H         1 UNK         0.3121 
    106 H106       26.8338   30.9457   -0.2402 H         1 UNK         0.0774 
    107 H107       28.0055   32.0972   -2.8263 H         1 UNK         0.0815 
    108 H108       26.6660   32.7491   -1.8980 H         1 UNK         0.0815 
    109 H109       26.4870   31.2068   -2.7159 H         1 UNK         0.0815 
    110 H110       29.6243   30.2809    0.6285 H         1 UNK         0.2987 
    111 H111       30.5348   32.9875    1.5179 H         1 UNK         0.0949 
    112 H112       32.2317   30.5346    0.7930 H         1 UNK         0.0806 
    113 H113       32.0690   31.9756   -0.2107 H         1 UNK         0.0806 
    114 H114       32.8396   32.0838    1.3649 H         1 UNK         0.0806 
    115 H115       28.5693   31.3879    2.7868 H         1 UNK         0.3010 
    116 H116       29.3213   29.5614    4.6888 H         1 UNK         0.0829 
    117 H117       27.2031   30.2239    5.8635 H         1 UNK         0.0813 
    118 H118       27.1204   31.6909    4.8985 H         1 UNK         0.0813 
    119 H119       26.9597   30.1117    4.1291 H         1 UNK         0.0813 
    120 H120       30.1095   29.5099    6.6840 H         1 UNK         0.3038 
    121 H121       31.2464   29.9303    8.4979 H         1 UNK         0.0769 
    122 H122       30.3575   32.8602    8.4127 H         1 UNK         0.0811 
    123 H123       31.0848   32.0244    9.7722 H         1 UNK         0.0811 
    124 H124       29.4901   31.5489    9.2107 H         1 UNK         0.0811 
    125 H125       31.7983   32.4310    6.0145 H         1 UNK         0.3204 
    126 H126       34.4779   33.0798    6.7212 H         1 UNK         0.0748 
    127 H127       34.5863   34.0867    4.4473 H         1 UNK         0.0771 
    128 H128       33.0890   33.2874    3.9959 H         1 UNK         0.0771 
    129 H129       33.0883   34.5202    5.2551 H         1 UNK         0.0771 
    130 H130       33.1917   30.5363    4.5393 H         1 UNK         0.2980 
    131 H131       35.8016   29.5130    3.8670 H         1 UNK         0.0545 
    132 H132       35.1782   27.8834    7.4478 H         1 UNK         0.3459 
    133 H133       34.4095   29.3743    6.9667 H         1 UNK         0.3459 
    134 H134       33.9852   29.1757    2.3144 H         1 UNK         0.0616 
    135 H135       34.6293   27.6413    2.8109 H         1 UNK         0.0616 
    136 H136       31.6324   25.8132    4.2372 H         1 UNK         0.0634 
    137 H137       33.3748   25.9112    4.2934 H         1 UNK         0.0634 
@<TRIPOS>BOND
     1    1    2 1    
     2    1   72 1    
     3    1   73 1    
     4    1   74 1    
     5    2    3 2    
     6    2    4 am   BACKBONE|DICT|INTERRES
     7    4    5 1    
     8    4   75 1    
     9    5    6 1    
    10    5   35 1    
    11    5   76 1    
    12    6    7 1    
    13    6   77 1    
    14    6   78 1    
    15    7    8 1    
    16    8    9 1    
    17    8   79 1    
    18    8   80 1    
    19    9   10 ar   
    20    9   14 ar   
    21   10   11 ar   
    22   10   81 1    
    23   11   12 ar   
    24   11   71 1    
    25   12   13 ar   
    26   12   82 1    
    27   13   14 ar   
    28   13   15 1    
    29   14   83 1    
    30   15   16 1    
    31   15   84 1    
    32   15   85 1    
    33   16   17 1    
    34   17   18 1    
    35   17   86 1    
    36   17   87 1    
    37   18   19 1    
    38   18   37 1    
    39   18   88 1    
    40   19   20 am   BACKBONE|DICT|INTERRES
    41   19   89 1    
    42   20   21 2    
    43   20   22 1    
    44   22   23 1    
    45   22   24 1    
    46   22   90 1    
    47   23   91 1    
    48   23   92 1    
    49   23   93 1    
    50   24   25 am   BACKBONE|DICT|INTERRES
    51   24   94 1    
    52   25   26 2    
    53   25   27 1    
    54   27   28 1    
    55   27   29 1    
    56   27   95 1    
    57   28   96 1    
    58   28   97 1    
    59   28   98 1    
    60   29   30 am   BACKBONE|DICT|INTERRES
    61   29   99 1    
    62   30   31 2    
    63   30   32 1    
    64   32   33 1    
    65   32   34 1    
    66   32  100 1    
    67   33  101 1    
    68   33  102 1    
    69   33  103 1    
    70   34   35 am   BACKBONE|DICT|INTERRES
    71   34  104 1    
    72   35   36 2    
    73   37   38 2    
    74   37   39 am   BACKBONE|DICT|INTERRES
    75   39   40 1    
    76   39  105 1    
    77   40   41 1    
    78   40   42 1    
    79   40  106 1    
    80   41  107 1    
    81   41  108 1    
    82   41  109 1    
    83   42   43 2    
    84   42   44 am   BACKBONE|DICT|INTERRES
    85   44   45 1    
    86   44  110 1    
    87   45   46 1    
    88   45   47 1    
    89   45  111 1    
    90   46  112 1    
    91   46  113 1    
    92   46  114 1    
    93   47   48 2    
    94   47   49 am   BACKBONE|DICT|INTERRES
    95   49   50 1    
    96   49  115 1    
    97   50   51 1    
    98   50   52 1    
    99   50  116 1    
   100   51  117 1    
   101   51  118 1    
   102   51  119 1    
   103   52   53 2    
   104   52   54 am   BACKBONE|DICT|INTERRES
   105   54   55 1    
   106   54  120 1    
   107   55   56 1    
   108   55   57 1    
   109   55  121 1    
   110   56  122 1    
   111   56  123 1    
   112   56  124 1    
   113   57   58 2    
   114   57   59 am   BACKBONE|DICT|INTERRES
   115   59   60 1    
   116   59  125 1    
   117   60   61 1    
   118   60   62 1    
   119   60  126 1    
   120   61  127 1    
   121   61  128 1    
   122   61  129 1    
   123   62   63 2    
   124   62   64 am   BACKBONE|DICT|INTERRES
   125   64   65 1    
   126   64  130 1    
   127   65   66 1    
   128   65   69 1    
   129   65  131 1    
   130   66   67 am   BACKBONE|DICT|INTERRES
   131   66   68 2    
   132   67  132 1    
   133   67  133 1    
   134   69   70 1    
   135   69  134 1    
   136   69  135 1    
   137   70   71 1    
   138   71  136 1    
   139   71  137 1    
@<TRIPOS>SUBSTRUCTURE
     1 UNK         1 GROUP             0       ****    0 ROOT    
