@<TRIPOS>MOLECULE
3R136
137   139    1
SMALL
USER_CHARGES


@<TRIPOS>ATOM
      1 CA         28.1433   21.5862   -1.9845 C.3       0 UNK        -0.1979 
      2 C          28.5874   21.5878   -0.5286 C.2       0 UNK         0.4864 
      3 O          28.3347   20.6151    0.1836 O.2       0 UNK        -0.5359 
      4 N          29.2487   22.6728   -0.1024 N.am      1 UNK        -0.4318 
      5 CA         29.7239   22.9604    1.2564 C.3       1 UNK         0.0824 
      6 C6         30.5854   21.8172    1.8641 C.3       12 UNK        -0.0944 
      7 S7         31.8344   22.3807    3.0697 S.3       12 UNK        -0.2672 
      8 C8         33.2725   22.7484    2.0098 C.3       12 UNK         0.0333 
      9 C9         33.1328   24.1177    1.3637 C.ar      12 UNK        -0.0807 
     10 C10        33.4233   25.2679    2.1023 C.ar      12 UNK        -0.0894 
     11 C11        33.2198   26.5360    1.5510 C.ar      12 UNK        -0.0804 
     12 C12        32.7251   26.6487    0.2489 C.ar      12 UNK        -0.0824 
     13 C13        32.4313   25.5039   -0.4983 C.ar      12 UNK        -0.0762 
     14 C14        32.6685   24.2407    0.0511 C.ar      12 UNK        -0.0782 
     15 C15        31.8070   25.6263   -1.8790 C.3       12 UNK         0.0230 
     16 S16        30.0028   25.3801   -1.8002 S.3       12 UNK        -0.2608 
     17 C17        29.4770   26.8491   -0.8561 C.3       12 UNK        -0.0989 
     18 CA         28.0076   27.2222   -1.1652 C.3       5 UNK         0.0716 
     19 N          27.0477   26.2772   -0.5905 N.am      5 UNK        -0.4135 
     20 C          25.9312   25.8641   -1.2079 C.2       4 UNK         0.5031 
     21 O          25.6528   26.1283   -2.3783 O.2       4 UNK        -0.5229 
     22 CA         24.9353   25.0298   -0.3808 C.3       4 UNK         0.0329 
     23 CB         25.1476   23.5279   -0.6201 C.3       4 UNK        -0.2001 
     24 N          25.0066   25.3261    1.0536 N.am      4 UNK        -0.4303 
     25 C          24.5418   26.4633    1.5951 C.2       3 UNK         0.5044 
     26 O          23.9203   27.3104    0.9534 O.2       3 UNK        -0.5152 
     27 CA         24.8116   26.7265    3.0896 C.3       3 UNK         0.0319 
     28 CB         23.5218   26.5480    3.9071 C.3       3 UNK        -0.2001 
     29 N          25.8684   25.9053    3.6862 N.am      3 UNK        -0.4354 
     30 C          27.1630   25.9180    3.3431 C.2       2 UNK         0.4964 
     31 O          27.6227   26.6160    2.4338 O.2       2 UNK        -0.5047 
     32 CA         28.1024   24.9697    4.1174 C.3       2 UNK         0.0288 
     33 CB         27.3857   24.0055    5.0904 C.3       2 UNK        -0.2113 
     34 N          28.9779   24.2196    3.2111 N.am      2 UNK        -0.4145 
     35 C          28.5912   23.4609    2.1748 C.2       1 UNK         0.5006 
     36 O          27.4098   23.2182    1.9131 O.2       1 UNK        -0.5103 
     37 C          27.6755   28.6420   -0.6761 C.2       5 UNK         0.5055 
     38 O          27.5105   29.5355   -1.5077 O.2       5 UNK        -0.5220 
     39 N          27.5751   28.8182    0.6532 N.am      6 UNK        -0.4450 
     40 CA         27.2725   30.0718    1.3598 C.3       6 UNK         0.0367 
     41 CB         25.7919   30.4597    1.1612 C.3       6 UNK        -0.1929 
     42 C          28.2398   31.2268    1.0195 C.2       6 UNK         0.5070 
     43 O          27.8084   32.3734    0.8781 O.2       6 UNK        -0.5237 
     44 N          29.5322   30.9033    0.8784 N.am      7 UNK        -0.4739 
     45 CA         30.6001   31.8681    0.6071 C.3       7 UNK         0.0276 
     46 CB         31.8199   31.1177    0.0437 C.3       7 UNK        -0.1927 
     47 C          30.9764   32.6673    1.8677 C.2       7 UNK         0.5013 
     48 O          30.6269   32.2735    2.9837 O.2       7 UNK        -0.5193 
     49 N          31.7164   33.7664    1.6733 N.am      8 UNK        -0.4253 
     50 CA         32.2440   34.6267    2.7374 C.3       8 UNK         0.0242 
     51 CB         32.5307   36.0233    2.1534 C.3       8 UNK        -0.2000 
     52 C          33.4815   33.9986    3.4111 C.2       8 UNK         0.4948 
     53 O          34.5805   34.5514    3.3305 O.2       8 UNK        -0.5275 
     54 N          33.2824   32.8388    4.0421 N.am      9 UNK        -0.4246 
     55 CA         34.2887   32.0358    4.7271 C.3       9 UNK         0.0261 
     56 CB         35.0849   31.2135    3.6946 C.3       9 UNK        -0.1959 
     57 C          33.5826   31.1264    5.7405 C.2       9 UNK         0.5033 
     58 O          32.3525   31.0198    5.7254 O.2       9 UNK        -0.5390 
     59 N          34.3685   30.4619    6.5957 N.am      10 UNK        -0.4215 
     60 CA         33.8969   29.4887    7.5848 C.3       10 UNK         0.0240 
     61 CB         34.9450   29.3706    8.7081 C.3       10 UNK        -0.1982 
     62 C          33.5728   28.1312    6.9287 C.2       10 UNK         0.4970 
     63 O          34.2498   27.1379    7.2000 O.2       10 UNK        -0.4916 
     64 N          32.5598   28.1219    6.0540 N.am      11 UNK        -0.4279 
     65 CA         32.1093   26.9422    5.2972 C.3       11 UNK         0.1003 
     66 C          31.3802   25.8574    6.1411 C.2       11 UNK         0.5709 
     67 N          30.9820   26.1267    7.3788 N.am      11 UNK        -0.7358 
     68 O          31.1678   24.7498    5.6573 O.2       11 UNK        -0.4999 
     69 C69        31.2599   27.3267    4.0541 C.3       12 UNK        -0.0954 
     70 S70        32.0069   28.5954    2.9765 S.3       12 UNK        -0.2268 
     71 C71        33.5200   27.7846    2.3657 C.3       12 UNK         0.0203 
     72 H72        27.0758   21.3781   -2.0514 H         1 UNK         0.0888 
     73 H73        28.3309   22.5443   -2.4696 H         1 UNK         0.0888 
     74 H74        28.6764   20.8139   -2.5382 H         1 UNK         0.0888 
     75 H75        29.3944   23.4322   -0.7568 H         1 UNK         0.3017 
     76 H76        30.3586   23.8328    1.1224 H         1 UNK         0.0873 
     77 H77        31.1119   21.2816    1.0727 H         1 UNK         0.0745 
     78 H78        29.9503   21.0712    2.3454 H         1 UNK         0.0745 
     79 H79        33.3981   21.9681    1.2577 H         1 UNK         0.0705 
     80 H80        34.1747   22.7277    2.6230 H         1 UNK         0.0705 
     81 H81        33.7850   25.1705    3.1163 H         1 UNK         0.1334 
     82 H82        32.5449   27.6294   -0.1698 H         1 UNK         0.1417 
     83 H83        32.4292   23.3541   -0.5207 H         1 UNK         0.1562 
     84 H84        32.2392   24.8788   -2.5458 H         1 UNK         0.0748 
     85 H85        32.0290   26.5976   -2.3238 H         1 UNK         0.0748 
     86 H86        30.1402   27.6753   -1.1212 H         1 UNK         0.0940 
     87 H87        29.6259   26.6637    0.2099 H         1 UNK         0.0940 
     88 H88        27.8998   27.2365   -2.2524 H         1 UNK         0.0703 
     89 H89        27.1747   26.0422    0.3855 H         1 UNK         0.3081 
     90 H90        23.9310   25.2804   -0.7298 H         1 UNK         0.0719 
     91 H91        25.0249   23.2812   -1.6756 H         1 UNK         0.0809 
     92 H92        26.1473   23.2123   -0.3286 H         1 UNK         0.0809 
     93 H93        24.4291   22.9288   -0.0607 H         1 UNK         0.0809 
     94 H94        25.5119   24.6695    1.6356 H         1 UNK         0.2990 
     95 H95        25.1258   27.7688    3.1746 H         1 UNK         0.0690 
     96 H96        23.6691   26.8301    4.9498 H         1 UNK         0.0788 
     97 H97        23.1688   25.5161    3.8831 H         1 UNK         0.0788 
     98 H98        22.7198   27.1756    3.5156 H         1 UNK         0.0788 
     99 H99        25.5840   25.2768    4.4239 H         1 UNK         0.2993 
    100 H100       28.7471   25.6176    4.7102 H         1 UNK         0.0949 
    101 H101       26.8333   24.5485    5.8583 H         1 UNK         0.0767 
    102 H102       26.6883   23.3430    4.5759 H         1 UNK         0.0767 
    103 H103       28.1088   23.3771    5.6112 H         1 UNK         0.0767 
    104 H104       29.9702   24.3337    3.3742 H         1 UNK         0.3013 
    105 H105       27.7167   28.0129    1.2616 H         1 UNK         0.3121 
    106 H106       27.4174   29.8637    2.4211 H         1 UNK         0.0774 
    107 H107       25.1256   29.6520    1.4594 H         1 UNK         0.0815 
    108 H108       25.5291   31.3298    1.7640 H         1 UNK         0.0815 
    109 H109       25.5753   30.7059    0.1213 H         1 UNK         0.0815 
    110 H110       29.8151   29.9530    1.0673 H         1 UNK         0.2987 
    111 H111       30.2451   32.5719   -0.1494 H         1 UNK         0.0949 
    112 H112       31.5525   30.5223   -0.8296 H         1 UNK         0.0806 
    113 H113       32.5997   31.8128   -0.2696 H         1 UNK         0.0806 
    114 H114       32.2635   30.4505    0.7815 H         1 UNK         0.0806 
    115 H115       31.9916   34.0045    0.7310 H         1 UNK         0.3010 
    116 H116       31.4796   34.7422    3.5093 H         1 UNK         0.0829 
    117 H117       32.9006   36.7002    2.9248 H         1 UNK         0.0813 
    118 H118       33.2826   35.9865    1.3640 H         1 UNK         0.0813 
    119 H119       31.6286   36.4724    1.7375 H         1 UNK         0.0813 
    120 H120       32.3413   32.4491    4.0722 H         1 UNK         0.3038 
    121 H121       34.9633   32.6966    5.2755 H         1 UNK         0.0769 
    122 H122       35.8316   30.5798    4.1739 H         1 UNK         0.0811 
    123 H123       35.6161   31.8605    2.9964 H         1 UNK         0.0811 
    124 H124       34.4294   30.5659    3.1125 H         1 UNK         0.0811 
    125 H125       35.3693   30.5819    6.5275 H         1 UNK         0.3204 
    126 H126       32.9734   29.8605    8.0345 H         1 UNK         0.0748 
    127 H127       34.6168   28.6686    9.4761 H         1 UNK         0.0771 
    128 H128       35.9060   29.0171    8.3320 H         1 UNK         0.0771 
    129 H129       35.1094   30.3300    9.1991 H         1 UNK         0.0771 
    130 H130       32.0996   29.0018    5.8438 H         1 UNK         0.2980 
    131 H131       33.0105   26.4495    4.9323 H         1 UNK         0.0545 
    132 H132       31.1466   27.0332    7.7848 H         1 UNK         0.3459 
    133 H133       30.5151   25.4103    7.9116 H         1 UNK         0.3459 
    134 H134       31.0506   26.4478    3.4422 H         1 UNK         0.0616 
    135 H135       30.2879   27.7095    4.3701 H         1 UNK         0.0616 
    136 H136       34.0653   28.4938    1.7417 H         1 UNK         0.0634 
    137 H137       34.1774   27.5571    3.2057 H         1 UNK         0.0634 
@<TRIPOS>BOND
     1    1    2 1    
     2    1   72 1    
     3    1   73 1    
     4    1   74 1    
     5    2    3 2    
     6    2    4 am   BACKBONE|DICT|INTERRES
     7    4    5 1    
     8    4   75 1    
     9    5    6 1    
    10    5   35 1    
    11    5   76 1    
    12    6    7 1    
    13    6   77 1    
    14    6   78 1    
    15    7    8 1    
    16    8    9 1    
    17    8   79 1    
    18    8   80 1    
    19    9   10 ar   
    20    9   14 ar   
    21   10   11 ar   
    22   10   81 1    
    23   11   12 ar   
    24   11   71 1    
    25   12   13 ar   
    26   12   82 1    
    27   13   14 ar   
    28   13   15 1    
    29   14   83 1    
    30   15   16 1    
    31   15   84 1    
    32   15   85 1    
    33   16   17 1    
    34   17   18 1    
    35   17   86 1    
    36   17   87 1    
    37   18   19 1    
    38   18   37 1    
    39   18   88 1    
    40   19   20 am   BACKBONE|DICT|INTERRES
    41   19   89 1    
    42   20   21 2    
    43   20   22 1    
    44   22   23 1    
    45   22   24 1    
    46   22   90 1    
    47   23   91 1    
    48   23   92 1    
    49   23   93 1    
    50   24   25 am   BACKBONE|DICT|INTERRES
    51   24   94 1    
    52   25   26 2    
    53   25   27 1    
    54   27   28 1    
    55   27   29 1    
    56   27   95 1    
    57   28   96 1    
    58   28   97 1    
    59   28   98 1    
    60   29   30 am   BACKBONE|DICT|INTERRES
    61   29   99 1    
    62   30   31 2    
    63   30   32 1    
    64   32   33 1    
    65   32   34 1    
    66   32  100 1    
    67   33  101 1    
    68   33  102 1    
    69   33  103 1    
    70   34   35 am   BACKBONE|DICT|INTERRES
    71   34  104 1    
    72   35   36 2    
    73   37   38 2    
    74   37   39 am   BACKBONE|DICT|INTERRES
    75   39   40 1    
    76   39  105 1    
    77   40   41 1    
    78   40   42 1    
    79   40  106 1    
    80   41  107 1    
    81   41  108 1    
    82   41  109 1    
    83   42   43 2    
    84   42   44 am   BACKBONE|DICT|INTERRES
    85   44   45 1    
    86   44  110 1    
    87   45   46 1    
    88   45   47 1    
    89   45  111 1    
    90   46  112 1    
    91   46  113 1    
    92   46  114 1    
    93   47   48 2    
    94   47   49 am   BACKBONE|DICT|INTERRES
    95   49   50 1    
    96   49  115 1    
    97   50   51 1    
    98   50   52 1    
    99   50  116 1    
   100   51  117 1    
   101   51  118 1    
   102   51  119 1    
   103   52   53 2    
   104   52   54 am   BACKBONE|DICT|INTERRES
   105   54   55 1    
   106   54  120 1    
   107   55   56 1    
   108   55   57 1    
   109   55  121 1    
   110   56  122 1    
   111   56  123 1    
   112   56  124 1    
   113   57   58 2    
   114   57   59 am   BACKBONE|DICT|INTERRES
   115   59   60 1    
   116   59  125 1    
   117   60   61 1    
   118   60   62 1    
   119   60  126 1    
   120   61  127 1    
   121   61  128 1    
   122   61  129 1    
   123   62   63 2    
   124   62   64 am   BACKBONE|DICT|INTERRES
   125   64   65 1    
   126   64  130 1    
   127   65   66 1    
   128   65   69 1    
   129   65  131 1    
   130   66   67 am   BACKBONE|DICT|INTERRES
   131   66   68 2    
   132   67  132 1    
   133   67  133 1    
   134   69   70 1    
   135   69  134 1    
   136   69  135 1    
   137   70   71 1    
   138   71  136 1    
   139   71  137 1    
@<TRIPOS>SUBSTRUCTURE
     1 UNK         1 GROUP             0       ****    0 ROOT    
