@<TRIPOS>MOLECULE
3R136
137   139    1
SMALL
USER_CHARGES


@<TRIPOS>ATOM
      1 CA         27.5123   19.4637   -0.4090 C.3       0 UNK        -0.1979 
      2 C          28.6989   20.2333   -0.9850 C.2       0 UNK         0.4864 
      3 O          29.2490   19.7989   -1.9957 O.2       0 UNK        -0.5359 
      4 N          29.1484   21.3593   -0.4078 N.am      1 UNK        -0.4318 
      5 CA         28.6400   22.0802    0.7708 C.3       1 UNK         0.0824 
      6 C6         28.7070   21.2877    2.1059 C.3       12 UNK        -0.0944 
      7 S7         30.3891   20.7013    2.4994 S.3       12 UNK        -0.2672 
      8 C8         30.9003   21.8428    3.8367 C.3       12 UNK         0.0333 
      9 C9         31.5534   23.1613    3.4056 C.ar      12 UNK        -0.0807 
     10 C10        31.9204   24.0663    4.4081 C.ar      12 UNK        -0.0894 
     11 C11        32.5961   25.2493    4.0967 C.ar      12 UNK        -0.0804 
     12 C12        32.8814   25.5457    2.7610 C.ar      12 UNK        -0.0824 
     13 C13        32.5086   24.6656    1.7397 C.ar      12 UNK        -0.0762 
     14 C14        31.8554   23.4733    2.0716 C.ar      12 UNK        -0.0782 
     15 C15        32.8908   24.9409    0.2868 C.3       12 UNK         0.0230 
     16 S16        32.5898   26.6555   -0.2610 S.3       12 UNK        -0.2608 
     17 C17        30.7843   26.6815   -0.5146 C.3       12 UNK        -0.0989 
     18 CA         30.1169   27.9088    0.1600 C.3       5 UNK         0.0716 
     19 N          28.8286   28.2261   -0.4528 N.am      5 UNK        -0.4135 
     20 C          28.5196   29.3772   -1.0659 C.2       4 UNK         0.5031 
     21 O          29.3081   30.3120   -1.2106 O.2       4 UNK        -0.5229 
     22 CA         27.0940   29.5201   -1.6384 C.3       4 UNK         0.0329 
     23 CB         27.1073   29.3185   -3.1627 C.3       4 UNK        -0.2001 
     24 N          26.1317   28.5891   -1.0457 N.am      4 UNK        -0.4303 
     25 C          25.6660   28.6659    0.2085 C.2       3 UNK         0.5044 
     26 O          25.8865   29.6189    0.9552 O.2       3 UNK        -0.5152 
     27 CA         24.8300   27.4768    0.7266 C.3       3 UNK         0.0319 
     28 CB         23.3428   27.8601    0.8001 C.3       3 UNK        -0.2001 
     29 N          24.9629   26.2258   -0.0376 N.am      3 UNK        -0.4354 
     30 C          26.1011   25.5455   -0.2305 C.2       2 UNK         0.4964 
     31 O          27.2109   25.9477    0.1296 O.2       2 UNK        -0.5047 
     32 CA         25.9960   24.2232   -1.0081 C.3       2 UNK         0.0288 
     33 CB         26.0086   24.4923   -2.5218 C.3       2 UNK        -0.2113 
     34 N          27.1158   23.3413   -0.6739 N.am      2 UNK        -0.4145 
     35 C          27.2690   22.7382    0.5133 C.2       1 UNK         0.5006 
     36 O          26.3882   22.6987    1.3744 O.2       1 UNK        -0.5103 
     37 C          29.9270   27.7097    1.6717 C.2       5 UNK         0.5055 
     38 O          30.5289   28.4410    2.4570 O.2       5 UNK        -0.5220 
     39 N          29.0852   26.7383    2.0519 N.am      6 UNK        -0.4450 
     40 CA         28.8343   26.3489    3.4366 C.3       6 UNK         0.0367 
     41 CB         28.0427   25.0344    3.4651 C.3       6 UNK        -0.1929 
     42 C          28.1034   27.4564    4.2061 C.2       6 UNK         0.5070 
     43 O          27.0085   27.8544    3.8069 O.2       6 UNK        -0.5237 
     44 N          28.7426   27.9294    5.2835 N.am      7 UNK        -0.4739 
     45 CA         28.3465   29.0521    6.1430 C.3       7 UNK         0.0276 
     46 CB         26.9935   28.7818    6.8359 C.3       7 UNK        -0.1927 
     47 C          28.3922   30.4269    5.4427 C.2       7 UNK         0.5013 
     48 O          27.8464   31.3921    5.9817 O.2       7 UNK        -0.5193 
     49 N          29.0613   30.5098    4.2850 N.am      8 UNK        -0.4253 
     50 CA         29.3688   31.7545    3.5834 C.3       8 UNK         0.0242 
     51 CB         29.2167   31.5196    2.0687 C.3       8 UNK        -0.2000 
     52 C          30.7937   32.2082    3.9424 C.2       8 UNK         0.4948 
     53 O          31.4876   31.5394    4.7139 O.2       8 UNK        -0.5275 
     54 N          31.2293   33.3261    3.3423 N.am      9 UNK        -0.4246 
     55 CA         32.5629   33.9219    3.5149 C.3       9 UNK         0.0261 
     56 CB         32.6542   35.2112    2.6827 C.3       9 UNK        -0.1959 
     57 C          33.7378   32.9815    3.1785 C.2       9 UNK         0.5033 
     58 O          34.8287   33.1646    3.7207 O.2       9 UNK        -0.5390 
     59 N          33.4854   31.9675    2.3377 N.am      10 UNK        -0.4215 
     60 CA         34.4015   30.8707    2.0162 C.3       10 UNK         0.0240 
     61 CB         33.7425   29.9593    0.9689 C.3       10 UNK        -0.1982 
     62 C          34.8461   30.0417    3.2375 C.2       10 UNK         0.4970 
     63 O          35.9432   29.4829    3.2017 O.2       10 UNK        -0.4916 
     64 N          34.0176   29.9886    4.2906 N.am      11 UNK        -0.4279 
     65 CA         34.3554   29.3578    5.5760 C.3       11 UNK         0.1003 
     66 C          35.1993   30.2639    6.5206 C.2       11 UNK         0.5709 
     67 N          35.5047   31.5097    6.1724 N.am      11 UNK        -0.7358 
     68 O          35.6031   29.8202    7.5931 O.2       11 UNK        -0.4999 
     69 C69        33.1071   28.7853    6.3045 C.3       12 UNK        -0.0954 
     70 S70        32.0771   27.7024    5.2608 S.3       12 UNK        -0.2268 
     71 C71        33.0713   26.1840    5.2001 C.3       12 UNK         0.0203 
     72 H72        26.7371   20.1111   -0.0064 H         1 UNK         0.0888 
     73 H73        27.0486   18.8561   -1.1858 H         1 UNK         0.0888 
     74 H74        27.8503   18.7902    0.3778 H         1 UNK         0.0888 
     75 H75        29.9513   21.7940   -0.8398 H         1 UNK         0.3017 
     76 H76        29.3085   22.9331    0.8884 H         1 UNK         0.0873 
     77 H77        28.3496   21.9012    2.9337 H         1 UNK         0.0745 
     78 H78        28.0418   20.4252    2.0872 H         1 UNK         0.0745 
     79 H79        30.0472   22.0525    4.4834 H         1 UNK         0.0705 
     80 H80        31.6197   21.3070    4.4575 H         1 UNK         0.0705 
     81 H81        31.7103   23.8303    5.4427 H         1 UNK         0.1334 
     82 H82        33.4110   26.4579    2.5210 H         1 UNK         0.1417 
     83 H83        31.6198   22.7749    1.2828 H         1 UNK         0.1562 
     84 H84        32.3727   24.2603   -0.3907 H         1 UNK         0.0748 
     85 H85        33.9548   24.7296    0.1733 H         1 UNK         0.0748 
     86 H86        30.3347   25.7415   -0.1890 H         1 UNK         0.0940 
     87 H87        30.6245   26.7233   -1.5933 H         1 UNK         0.0940 
     88 H88        30.7867   28.7628    0.0387 H         1 UNK         0.0703 
     89 H89        28.1072   27.5178   -0.3503 H         1 UNK         0.3081 
     90 H90        26.7586   30.5383   -1.4297 H         1 UNK         0.0719 
     91 H91        27.4276   28.3119   -3.4351 H         1 UNK         0.0809 
     92 H92        26.1206   29.4868   -3.5945 H         1 UNK         0.0809 
     93 H93        27.7922   30.0190   -3.6428 H         1 UNK         0.0809 
     94 H94        25.8777   27.7824   -1.5964 H         1 UNK         0.2990 
     95 H95        25.1786   27.2707    1.7409 H         1 UNK         0.0690 
     96 H96        22.7522   27.0748    1.2723 H         1 UNK         0.0788 
     97 H97        22.9254   28.0482   -0.1899 H         1 UNK         0.0788 
     98 H98        23.2011   28.7662    1.3912 H         1 UNK         0.0788 
     99 H99        24.1033   25.8343   -0.3962 H         1 UNK         0.2993 
    100 H100       25.0627   23.7243   -0.7372 H         1 UNK         0.0949 
    101 H101       26.9187   25.0066   -2.8345 H         1 UNK         0.0767 
    102 H102       25.9372   23.5639   -3.0891 H         1 UNK         0.0767 
    103 H103       25.1634   25.1149   -2.8185 H         1 UNK         0.0767 
    104 H104       27.8862   23.3261   -1.3256 H         1 UNK         0.3013 
    105 H105       28.5201   26.2728    1.3464 H         1 UNK         0.3121 
    106 H106       29.8021   26.1644    3.9064 H         1 UNK         0.0774 
    107 H107       27.8393   24.7216    4.4898 H         1 UNK         0.0815 
    108 H108       27.0841   25.1266    2.9525 H         1 UNK         0.0815 
    109 H109       28.6072   24.2353    2.9887 H         1 UNK         0.0815 
    110 H110       29.6646   27.5563    5.4760 H         1 UNK         0.2987 
    111 H111       29.1065   29.1029    6.9244 H         1 UNK         0.0949 
    112 H112       26.1631   28.8075    6.1299 H         1 UNK         0.0806 
    113 H113       26.9863   27.8100    7.3292 H         1 UNK         0.0806 
    114 H114       26.7890   29.5324    7.6003 H         1 UNK         0.0806 
    115 H115       29.5312   29.6814    3.9350 H         1 UNK         0.3010 
    116 H116       28.6727   32.5394    3.8860 H         1 UNK         0.0829 
    117 H117       28.2641   31.0430    1.8347 H         1 UNK         0.0813 
    118 H118       29.2461   32.4579    1.5144 H         1 UNK         0.0813 
    119 H119       30.0092   30.8853    1.6713 H         1 UNK         0.0813 
    120 H120       30.5981   33.8180    2.7257 H         1 UNK         0.3038 
    121 H121       32.6621   34.1878    4.5693 H         1 UNK         0.0769 
    122 H122       32.5270   35.0146    1.6174 H         1 UNK         0.0811 
    123 H123       33.6257   35.6909    2.8114 H         1 UNK         0.0811 
    124 H124       31.8971   35.9350    2.9850 H         1 UNK         0.0811 
    125 H125       32.5559   31.9038    1.9508 H         1 UNK         0.3204 
    126 H126       35.2982   31.3119    1.5764 H         1 UNK         0.0748 
    127 H127       34.4167   29.1545    0.6722 H         1 UNK         0.0771 
    128 H128       32.8358   29.4938    1.3573 H         1 UNK         0.0771 
    129 H129       33.4795   30.5090    0.0651 H         1 UNK         0.0771 
    130 H130       33.1298   30.4809    4.2650 H         1 UNK         0.2980 
    131 H131       35.0068   28.5098    5.3626 H         1 UNK         0.0545 
    132 H132       35.2017   31.9012    5.2881 H         1 UNK         0.3459 
    133 H133       36.0577   32.0699    6.8009 H         1 UNK         0.3459 
    134 H134       32.4722   29.6015    6.6538 H         1 UNK         0.0616 
    135 H135       33.4005   28.2238    7.1933 H         1 UNK         0.0616 
    136 H136       34.1172   26.4315    5.0194 H         1 UNK         0.0634 
    137 H137       33.0330   25.6930    6.1735 H         1 UNK         0.0634 
@<TRIPOS>BOND
     1    1    2 1    
     2    1   72 1    
     3    1   73 1    
     4    1   74 1    
     5    2    3 2    
     6    2    4 am   BACKBONE|DICT|INTERRES
     7    4    5 1    
     8    4   75 1    
     9    5    6 1    
    10    5   35 1    
    11    5   76 1    
    12    6    7 1    
    13    6   77 1    
    14    6   78 1    
    15    7    8 1    
    16    8    9 1    
    17    8   79 1    
    18    8   80 1    
    19    9   10 ar   
    20    9   14 ar   
    21   10   11 ar   
    22   10   81 1    
    23   11   12 ar   
    24   11   71 1    
    25   12   13 ar   
    26   12   82 1    
    27   13   14 ar   
    28   13   15 1    
    29   14   83 1    
    30   15   16 1    
    31   15   84 1    
    32   15   85 1    
    33   16   17 1    
    34   17   18 1    
    35   17   86 1    
    36   17   87 1    
    37   18   19 1    
    38   18   37 1    
    39   18   88 1    
    40   19   20 am   BACKBONE|DICT|INTERRES
    41   19   89 1    
    42   20   21 2    
    43   20   22 1    
    44   22   23 1    
    45   22   24 1    
    46   22   90 1    
    47   23   91 1    
    48   23   92 1    
    49   23   93 1    
    50   24   25 am   BACKBONE|DICT|INTERRES
    51   24   94 1    
    52   25   26 2    
    53   25   27 1    
    54   27   28 1    
    55   27   29 1    
    56   27   95 1    
    57   28   96 1    
    58   28   97 1    
    59   28   98 1    
    60   29   30 am   BACKBONE|DICT|INTERRES
    61   29   99 1    
    62   30   31 2    
    63   30   32 1    
    64   32   33 1    
    65   32   34 1    
    66   32  100 1    
    67   33  101 1    
    68   33  102 1    
    69   33  103 1    
    70   34   35 am   BACKBONE|DICT|INTERRES
    71   34  104 1    
    72   35   36 2    
    73   37   38 2    
    74   37   39 am   BACKBONE|DICT|INTERRES
    75   39   40 1    
    76   39  105 1    
    77   40   41 1    
    78   40   42 1    
    79   40  106 1    
    80   41  107 1    
    81   41  108 1    
    82   41  109 1    
    83   42   43 2    
    84   42   44 am   BACKBONE|DICT|INTERRES
    85   44   45 1    
    86   44  110 1    
    87   45   46 1    
    88   45   47 1    
    89   45  111 1    
    90   46  112 1    
    91   46  113 1    
    92   46  114 1    
    93   47   48 2    
    94   47   49 am   BACKBONE|DICT|INTERRES
    95   49   50 1    
    96   49  115 1    
    97   50   51 1    
    98   50   52 1    
    99   50  116 1    
   100   51  117 1    
   101   51  118 1    
   102   51  119 1    
   103   52   53 2    
   104   52   54 am   BACKBONE|DICT|INTERRES
   105   54   55 1    
   106   54  120 1    
   107   55   56 1    
   108   55   57 1    
   109   55  121 1    
   110   56  122 1    
   111   56  123 1    
   112   56  124 1    
   113   57   58 2    
   114   57   59 am   BACKBONE|DICT|INTERRES
   115   59   60 1    
   116   59  125 1    
   117   60   61 1    
   118   60   62 1    
   119   60  126 1    
   120   61  127 1    
   121   61  128 1    
   122   61  129 1    
   123   62   63 2    
   124   62   64 am   BACKBONE|DICT|INTERRES
   125   64   65 1    
   126   64  130 1    
   127   65   66 1    
   128   65   69 1    
   129   65  131 1    
   130   66   67 am   BACKBONE|DICT|INTERRES
   131   66   68 2    
   132   67  132 1    
   133   67  133 1    
   134   69   70 1    
   135   69  134 1    
   136   69  135 1    
   137   70   71 1    
   138   71  136 1    
   139   71  137 1    
@<TRIPOS>SUBSTRUCTURE
     1 UNK         1 GROUP             0       ****    0 ROOT    
