@<TRIPOS>MOLECULE
3R136
137   139    1
SMALL
USER_CHARGES


@<TRIPOS>ATOM
      1 CA         30.4039   18.4637   -4.1689 C.3       0 UNK        -0.1979 
      2 C          30.1760   19.8242   -3.5264 C.2       0 UNK         0.4864 
      3 O          30.2931   20.8472   -4.2033 O.2       0 UNK        -0.5359 
      4 N          29.8596   19.8446   -2.2249 N.am      1 UNK        -0.4318 
      5 CA         29.5404   21.0543   -1.4620 C.3       1 UNK         0.0824 
      6 C6         29.6206   20.7842    0.0612 C.3       12 UNK        -0.0944 
      7 S7         29.7088   22.3079    1.0604 S.3       12 UNK        -0.2672 
      8 C8         29.5501   21.5878    2.7213 C.3       12 UNK         0.0333 
      9 C9         29.7209   22.6372    3.8083 C.ar      12 UNK        -0.0807 
     10 C10        30.9900   23.1580    4.0772 C.ar      12 UNK        -0.0894 
     11 C11        31.1778   24.0911    5.1009 C.ar      12 UNK        -0.0804 
     12 C12        30.0810   24.4666    5.8833 C.ar      12 UNK        -0.0824 
     13 C13        28.7986   23.9885    5.6009 C.ar      12 UNK        -0.0762 
     14 C14        28.6250   23.0674    4.5635 C.ar      12 UNK        -0.0782 
     15 C15        27.6074   24.4526    6.4291 C.3       12 UNK         0.0230 
     16 S16        26.8776   25.9967    5.7854 S.3       12 UNK        -0.2608 
     17 C17        28.0894   27.2583    6.3344 C.3       12 UNK        -0.0989 
     18 CA         28.7888   28.0319    5.1816 C.3       5 UNK         0.0716 
     19 N          29.1509   27.1609    4.0589 N.am      5 UNK        -0.4135 
     20 C          29.8599   27.5247    2.9840 C.2       4 UNK         0.5031 
     21 O          30.4555   28.5981    2.9032 O.2       4 UNK        -0.5229 
     22 CA         29.8589   26.5807    1.7651 C.3       4 UNK         0.0329 
     23 CB         31.2312   25.9160    1.5846 C.3       4 UNK        -0.2001 
     24 N          28.8067   25.5539    1.7604 N.am      4 UNK        -0.4303 
     25 C          27.4874   25.7982    1.7781 C.2       3 UNK         0.5044 
     26 O          27.0068   26.9263    1.8899 O.2       3 UNK        -0.5152 
     27 CA         26.5676   24.5735    1.6340 C.3       3 UNK         0.0319 
     28 CB         25.0941   24.8862    1.9697 C.3       3 UNK        -0.2001 
     29 N          26.6924   23.9595    0.3066 N.am      3 UNK        -0.4354 
     30 C          26.4480   24.5230   -0.8889 C.2       2 UNK         0.4964 
     31 O          25.9978   25.6593   -1.0399 O.2       2 UNK        -0.5047 
     32 CA         26.7904   23.6695   -2.1243 C.3       2 UNK         0.0288 
     33 CB         26.9341   24.5093   -3.4087 C.3       2 UNK        -0.2113 
     34 N          28.0351   22.9332   -1.8945 N.am      2 UNK        -0.4145 
     35 C          28.1545   21.6012   -1.8636 C.2       1 UNK         0.5006 
     36 O          27.2262   20.8182   -2.0842 O.2       1 UNK        -0.5103 
     37 C          27.9584   29.2680    4.7600 C.2       5 UNK         0.5055 
     38 O          28.0210   30.2854    5.4508 O.2       5 UNK        -0.5220 
     39 N          27.2079   29.1759    3.6516 N.am      6 UNK        -0.4450 
     40 CA         26.4163   30.2728    3.0897 C.3       6 UNK         0.0367 
     41 CB         25.2015   29.6823    2.3528 C.3       6 UNK        -0.1929 
     42 C          27.2244   31.1935    2.1535 C.2       6 UNK         0.5070 
     43 O          26.6744   32.1963    1.6946 O.2       6 UNK        -0.5237 
     44 N          28.4878   30.8518    1.8584 N.am      7 UNK        -0.4739 
     45 CA         29.3896   31.6580    1.0301 C.3       7 UNK         0.0276 
     46 CB         30.5478   30.7705    0.5395 C.3       7 UNK        -0.1927 
     47 C          29.9305   32.8850    1.7878 C.2       7 UNK         0.5013 
     48 O          29.7620   32.9937    3.0048 O.2       7 UNK        -0.5193 
     49 N          30.6051   33.7725    1.0499 N.am      8 UNK        -0.4253 
     50 CA         31.3384   34.9177    1.5801 C.3       8 UNK         0.0242 
     51 CB         30.6045   36.2153    1.1953 C.3       8 UNK        -0.2000 
     52 C          32.7546   34.8725    0.9772 C.2       8 UNK         0.4948 
     53 O          32.8732   35.0761   -0.2313 O.2       8 UNK        -0.5275 
     54 N          33.8240   34.6114    1.7453 N.am      9 UNK        -0.4246 
     55 CA         33.8574   34.1771    3.1461 C.3       9 UNK         0.0261 
     56 CB         35.3099   34.2398    3.6466 C.3       9 UNK        -0.1959 
     57 C          33.3114   32.7480    3.3093 C.2       9 UNK         0.5033 
     58 O          33.4962   31.9188    2.4134 O.2       9 UNK        -0.5390 
     59 N          32.6717   32.4848    4.4564 N.am      10 UNK        -0.4215 
     60 CA         32.0965   31.1853    4.8129 C.3       10 UNK         0.0240 
     61 CB         31.3532   31.3012    6.1534 C.3       10 UNK        -0.1982 
     62 C          33.1764   30.0951    4.8743 C.2       10 UNK         0.4970 
     63 O          34.1621   30.2623    5.5965 O.2       10 UNK        -0.4916 
     64 N          32.9744   29.0280    4.0950 N.am      11 UNK        -0.4279 
     65 CA         33.9086   27.9077    3.8950 C.3       11 UNK         0.1003 
     66 C          35.2434   28.2964    3.1866 C.2       11 UNK         0.5709 
     67 N          35.3482   29.4589    2.5503 N.am      11 UNK        -0.7358 
     68 O          36.1929   27.5164    3.1779 O.2       11 UNK        -0.4999 
     69 C69        34.1189   27.0512    5.1781 C.3       12 UNK        -0.0954 
     70 S70        32.5372   26.4314    5.8435 S.3       12 UNK        -0.2268 
     71 C71        32.5689   24.6740    5.3454 C.3       12 UNK         0.0203 
     72 H72        31.4123   18.4058   -4.5778 H         1 UNK         0.0888 
     73 H73        30.2806   17.6495   -3.4548 H         1 UNK         0.0888 
     74 H74        29.6960   18.3104   -4.9830 H         1 UNK         0.0888 
     75 H75        29.7462   18.9713   -1.7304 H         1 UNK         0.3017 
     76 H76        30.2959   21.8016   -1.7167 H         1 UNK         0.0873 
     77 H77        28.7789   20.1739    0.3962 H         1 UNK         0.0745 
     78 H78        30.5192   20.2066    0.2857 H         1 UNK         0.0745 
     79 H79        28.5803   21.0953    2.8089 H         1 UNK         0.0705 
     80 H80        30.3044   20.8103    2.8522 H         1 UNK         0.0705 
     81 H81        31.8329   22.8355    3.4806 H         1 UNK         0.1334 
     82 H82        30.2281   25.1498    6.7057 H         1 UNK         0.1417 
     83 H83        27.6395   22.6713    4.3592 H         1 UNK         0.1562 
     84 H84        27.8979   24.5877    7.4722 H         1 UNK         0.0748 
     85 H85        26.8365   23.6805    6.4320 H         1 UNK         0.0748 
     86 H86        28.8451   26.7894    6.9606 H         1 UNK         0.0940 
     87 H87        27.5789   27.9432    7.0153 H         1 UNK         0.0940 
     88 H88        29.7281   28.4247    5.5760 H         1 UNK         0.0703 
     89 H89        28.7032   26.2556    4.0548 H         1 UNK         0.3081 
     90 H90        29.6790   27.2092    0.8905 H         1 UNK         0.0719 
     91 H91        31.9989   26.6664    1.3947 H         1 UNK         0.0809 
     92 H92        31.2385   25.2315    0.7362 H         1 UNK         0.0809 
     93 H93        31.5305   25.3588    2.4708 H         1 UNK         0.0809 
     94 H94        29.1184   24.5946    1.6777 H         1 UNK         0.2990 
     95 H95        26.9137   23.8312    2.3531 H         1 UNK         0.0690 
     96 H96        24.6716   25.6366    1.3007 H         1 UNK         0.0788 
     97 H97        25.0034   25.2728    2.9859 H         1 UNK         0.0788 
     98 H98        24.4743   23.9922    1.9053 H         1 UNK         0.0788 
     99 H99        27.0754   23.0245    0.3014 H         1 UNK         0.2993 
    100 H100       25.9548   22.9801   -2.2635 H         1 UNK         0.0949 
    101 H101       26.0051   25.0307   -3.6438 H         1 UNK         0.0767 
    102 H102       27.7180   25.2617   -3.3131 H         1 UNK         0.0767 
    103 H103       27.1758   23.8807   -4.2660 H         1 UNK         0.0767 
    104 H104       28.8441   23.4955   -1.6673 H         1 UNK         0.3013 
    105 H105       27.1977   28.3049    3.1224 H         1 UNK         0.3121 
    106 H106       26.0411   30.8941    3.9057 H         1 UNK         0.0774 
    107 H107       24.5343   30.4713    2.0037 H         1 UNK         0.0815 
    108 H108       25.5025   29.1024    1.4795 H         1 UNK         0.0815 
    109 H109       24.6190   29.0301    3.0036 H         1 UNK         0.0815 
    110 H110       28.8974   30.0477    2.3170 H         1 UNK         0.2987 
    111 H111       28.8308   32.0130    0.1611 H         1 UNK         0.0949 
    112 H112       31.2331   30.5184    1.3495 H         1 UNK         0.0806 
    113 H113       30.1850   29.8396    0.1036 H         1 UNK         0.0806 
    114 H114       31.1356   31.2766   -0.2268 H         1 UNK         0.0806 
    115 H115       30.7427   33.5941    0.0640 H         1 UNK         0.3010 
    116 H116       31.3758   34.8815    2.6674 H         1 UNK         0.0829 
    117 H117       29.6075   36.2483    1.6350 H         1 UNK         0.0813 
    118 H118       31.1473   37.0903    1.5550 H         1 UNK         0.0813 
    119 H119       30.4949   36.3190    0.1150 H         1 UNK         0.0813 
    120 H120       34.7172   34.5786    1.2770 H         1 UNK         0.3038 
    121 H121       33.2694   34.8693    3.7509 H         1 UNK         0.0769 
    122 H122       35.9607   33.5692    3.0833 H         1 UNK         0.0811 
    123 H123       35.3760   33.9486    4.6959 H         1 UNK         0.0811 
    124 H124       35.7160   35.2484    3.5662 H         1 UNK         0.0811 
    125 H125       32.5935   33.2125    5.1514 H         1 UNK         0.3204 
    126 H126       31.3677   30.9238    4.0424 H         1 UNK         0.0748 
    127 H127       30.9328   30.3401    6.4508 H         1 UNK         0.0771 
    128 H128       32.0137   31.6300    6.9567 H         1 UNK         0.0771 
    129 H129       30.5240   32.0060    6.0841 H         1 UNK         0.0771 
    130 H130       32.1114   28.9737    3.5574 H         1 UNK         0.2980 
    131 H131       33.4136   27.2616    3.1718 H         1 UNK         0.0545 
    132 H132       34.5844   30.1255    2.5426 H         1 UNK         0.3459 
    133 H133       36.2127   29.6854    2.0860 H         1 UNK         0.3459 
    134 H134       34.6132   27.6361    5.9547 H         1 UNK         0.0616 
    135 H135       34.7761   26.2032    4.9797 H         1 UNK         0.0616 
    136 H136       33.1653   24.5775    4.4369 H         1 UNK         0.0634 
    137 H137       33.0741   24.0926    6.1173 H         1 UNK         0.0634 
@<TRIPOS>BOND
     1    1    2 1    
     2    1   72 1    
     3    1   73 1    
     4    1   74 1    
     5    2    3 2    
     6    2    4 am   BACKBONE|DICT|INTERRES
     7    4    5 1    
     8    4   75 1    
     9    5    6 1    
    10    5   35 1    
    11    5   76 1    
    12    6    7 1    
    13    6   77 1    
    14    6   78 1    
    15    7    8 1    
    16    8    9 1    
    17    8   79 1    
    18    8   80 1    
    19    9   10 ar   
    20    9   14 ar   
    21   10   11 ar   
    22   10   81 1    
    23   11   12 ar   
    24   11   71 1    
    25   12   13 ar   
    26   12   82 1    
    27   13   14 ar   
    28   13   15 1    
    29   14   83 1    
    30   15   16 1    
    31   15   84 1    
    32   15   85 1    
    33   16   17 1    
    34   17   18 1    
    35   17   86 1    
    36   17   87 1    
    37   18   19 1    
    38   18   37 1    
    39   18   88 1    
    40   19   20 am   BACKBONE|DICT|INTERRES
    41   19   89 1    
    42   20   21 2    
    43   20   22 1    
    44   22   23 1    
    45   22   24 1    
    46   22   90 1    
    47   23   91 1    
    48   23   92 1    
    49   23   93 1    
    50   24   25 am   BACKBONE|DICT|INTERRES
    51   24   94 1    
    52   25   26 2    
    53   25   27 1    
    54   27   28 1    
    55   27   29 1    
    56   27   95 1    
    57   28   96 1    
    58   28   97 1    
    59   28   98 1    
    60   29   30 am   BACKBONE|DICT|INTERRES
    61   29   99 1    
    62   30   31 2    
    63   30   32 1    
    64   32   33 1    
    65   32   34 1    
    66   32  100 1    
    67   33  101 1    
    68   33  102 1    
    69   33  103 1    
    70   34   35 am   BACKBONE|DICT|INTERRES
    71   34  104 1    
    72   35   36 2    
    73   37   38 2    
    74   37   39 am   BACKBONE|DICT|INTERRES
    75   39   40 1    
    76   39  105 1    
    77   40   41 1    
    78   40   42 1    
    79   40  106 1    
    80   41  107 1    
    81   41  108 1    
    82   41  109 1    
    83   42   43 2    
    84   42   44 am   BACKBONE|DICT|INTERRES
    85   44   45 1    
    86   44  110 1    
    87   45   46 1    
    88   45   47 1    
    89   45  111 1    
    90   46  112 1    
    91   46  113 1    
    92   46  114 1    
    93   47   48 2    
    94   47   49 am   BACKBONE|DICT|INTERRES
    95   49   50 1    
    96   49  115 1    
    97   50   51 1    
    98   50   52 1    
    99   50  116 1    
   100   51  117 1    
   101   51  118 1    
   102   51  119 1    
   103   52   53 2    
   104   52   54 am   BACKBONE|DICT|INTERRES
   105   54   55 1    
   106   54  120 1    
   107   55   56 1    
   108   55   57 1    
   109   55  121 1    
   110   56  122 1    
   111   56  123 1    
   112   56  124 1    
   113   57   58 2    
   114   57   59 am   BACKBONE|DICT|INTERRES
   115   59   60 1    
   116   59  125 1    
   117   60   61 1    
   118   60   62 1    
   119   60  126 1    
   120   61  127 1    
   121   61  128 1    
   122   61  129 1    
   123   62   63 2    
   124   62   64 am   BACKBONE|DICT|INTERRES
   125   64   65 1    
   126   64  130 1    
   127   65   66 1    
   128   65   69 1    
   129   65  131 1    
   130   66   67 am   BACKBONE|DICT|INTERRES
   131   66   68 2    
   132   67  132 1    
   133   67  133 1    
   134   69   70 1    
   135   69  134 1    
   136   69  135 1    
   137   70   71 1    
   138   71  136 1    
   139   71  137 1    
@<TRIPOS>SUBSTRUCTURE
     1 UNK         1 GROUP             0       ****    0 ROOT    
