@<TRIPOS>MOLECULE
3R136
137   139    1
SMALL
USER_CHARGES


@<TRIPOS>ATOM
      1 CA         26.8089   24.1692   -4.2101 C.3       0 UNK        -0.1979 
      2 C          27.6301   24.5176   -2.9789 C.2       0 UNK         0.4864 
      3 O          27.3431   25.5170   -2.3194 O.2       0 UNK        -0.5359 
      4 N          28.6382   23.6943   -2.6536 N.am      1 UNK        -0.4318 
      5 CA         29.5617   23.8695   -1.5233 C.3       1 UNK         0.0824 
      6 C6         30.6445   22.7602   -1.5164 C.3       12 UNK        -0.0944 
      7 S7         31.9941   23.0661   -0.3250 S.3       12 UNK        -0.2672 
      8 C8         31.6368   21.8054    0.9396 C.3       12 UNK         0.0333 
      9 C9         31.9964   22.3007    2.3308 C.ar      12 UNK        -0.0807 
     10 C10        33.3222   22.2611    2.7748 C.ar      12 UNK        -0.0894 
     11 C11        33.6513   22.7071    4.0584 C.ar      12 UNK        -0.0804 
     12 C12        32.6391   23.1663    4.9063 C.ar      12 UNK        -0.0824 
     13 C13        31.3182   23.2473    4.4610 C.ar      12 UNK        -0.0762 
     14 C14        30.9998   22.8034    3.1743 C.ar      12 UNK        -0.0782 
     15 C15        30.2507   23.8341    5.3731 C.3       12 UNK         0.0230 
     16 S16        30.3060   25.6569    5.3790 S.3       12 UNK        -0.2608 
     17 C17        29.3827   26.0383    3.8533 C.3       12 UNK        -0.0989 
     18 CA         29.6260   27.4633    3.2906 C.3       5 UNK         0.0716 
     19 N          29.2041   27.5198    1.8846 N.am      5 UNK        -0.4135 
     20 C          29.1681   28.5984    1.0889 C.2       4 UNK         0.5031 
     21 O          29.5714   29.7161    1.4085 O.2       4 UNK        -0.5229 
     22 CA         28.4756   28.4271   -0.2740 C.3       4 UNK         0.0329 
     23 CB         29.4928   28.0002   -1.3417 C.3       4 UNK        -0.2001 
     24 N          27.3435   27.4899   -0.2631 N.am      4 UNK        -0.4303 
     25 C          26.2743   27.5572    0.5474 C.2       3 UNK         0.5044 
     26 O          26.1346   28.4009    1.4329 O.2       3 UNK        -0.5152 
     27 CA         25.2014   26.4749    0.3730 C.3       3 UNK         0.0319 
     28 CB         24.3808   26.7052   -0.9065 C.3       3 UNK        -0.2001 
     29 N          25.8074   25.1449    0.3532 N.am      3 UNK        -0.4354 
     30 C          26.1873   24.4790    1.4539 C.2       2 UNK         0.4964 
     31 O          25.9700   24.8690    2.6012 O.2       2 UNK        -0.5047 
     32 CA         26.9635   23.1651    1.2482 C.3       2 UNK         0.0288 
     33 CB         25.9994   21.9693    1.1985 C.3       2 UNK        -0.2113 
     34 N          27.8088   23.1570    0.0503 N.am      2 UNK        -0.4145 
     35 C          28.8347   23.9946   -0.1649 C.2       1 UNK         0.5006 
     36 O          29.1773   24.8695    0.6319 O.2       1 UNK        -0.5103 
     37 C          28.9665   28.5443    4.1852 C.2       5 UNK         0.5055 
     38 O          29.6042   29.0195    5.1262 O.2       5 UNK        -0.5220 
     39 N          27.7181   28.9243    3.8752 N.am      6 UNK        -0.4450 
     40 CA         26.9927   30.0084    4.5361 C.3       6 UNK         0.0367 
     41 CB         25.6048   29.4994    4.9594 C.3       6 UNK        -0.1929 
     42 C          26.8544   31.2341    3.6196 C.2       6 UNK         0.5070 
     43 O          27.0137   32.3598    4.0917 O.2       6 UNK        -0.5237 
     44 N          26.5227   31.0057    2.3417 N.am      7 UNK        -0.4739 
     45 CA         26.1444   32.0466    1.3845 C.3       7 UNK         0.0276 
     46 CB         25.3577   31.4042    0.2298 C.3       7 UNK        -0.1927 
     47 C          27.3174   32.8710    0.8318 C.2       7 UNK         0.5013 
     48 O          27.1060   34.0387    0.5001 O.2       7 UNK        -0.5193 
     49 N          28.5059   32.2652    0.7090 N.am      8 UNK        -0.4253 
     50 CA         29.6945   32.9004    0.1401 C.3       8 UNK         0.0242 
     51 CB         30.3188   31.9958   -0.9391 C.3       8 UNK        -0.2000 
     52 C          30.6935   33.2409    1.2497 C.2       8 UNK         0.4948 
     53 O          30.9451   34.4239    1.4845 O.2       8 UNK        -0.5275 
     54 N          31.2413   32.2158    1.9140 N.am      9 UNK        -0.4246 
     55 CA         32.2496   32.3440    2.9650 C.3       9 UNK         0.0261 
     56 CB         33.6011   32.7974    2.3736 C.3       9 UNK        -0.1959 
     57 C          32.4163   30.9992    3.6764 C.2       9 UNK         0.5033 
     58 O          32.2287   29.9521    3.0532 O.2       9 UNK        -0.5390 
     59 N          32.8088   31.0568    4.9549 N.am      10 UNK        -0.4215 
     60 CA         33.1169   29.8890    5.7807 C.3       10 UNK         0.0240 
     61 CB         33.2737   30.3314    7.2450 C.3       10 UNK        -0.1982 
     62 C          34.3838   29.1617    5.2987 C.2       10 UNK         0.4970 
     63 O          35.3297   29.8069    4.8393 O.2       10 UNK        -0.4916 
     64 N          34.3732   27.8337    5.4388 N.am      11 UNK        -0.4279 
     65 CA         35.4762   26.9273    5.0970 C.3       11 UNK         0.1003 
     66 C          36.7244   27.1347    5.9993 C.2       11 UNK         0.5709 
     67 N          37.9227   27.0261    5.4420 N.am      11 UNK        -0.7358 
     68 O          36.6133   27.3606    7.2034 O.2       11 UNK        -0.4999 
     69 C69        34.9650   25.4671    5.1395 C.3       12 UNK        -0.0954 
     70 S70        35.9245   24.3020    4.1168 S.3       12 UNK        -0.2268 
     71 C71        35.1013   22.7249    4.5239 C.3       12 UNK         0.0203 
     72 H72        25.7633   24.0319   -3.9360 H         1 UNK         0.0888 
     73 H73        26.8667   24.9782   -4.9377 H         1 UNK         0.0888 
     74 H74        27.1581   23.2550   -4.6896 H         1 UNK         0.0888 
     75 H75        28.8158   22.8910   -3.2401 H         1 UNK         0.3017 
     76 H76        30.0702   24.8194   -1.6945 H         1 UNK         0.0873 
     77 H77        31.1076   22.7005   -2.5027 H         1 UNK         0.0745 
     78 H78        30.1982   21.7791   -1.3447 H         1 UNK         0.0745 
     79 H79        32.1941   20.8964    0.7083 H         1 UNK         0.0705 
     80 H80        30.5812   21.5310    0.9142 H         1 UNK         0.0705 
     81 H81        34.0989   21.8996    2.1145 H         1 UNK         0.1334 
     82 H82        32.8868   23.5117    5.9008 H         1 UNK         0.1417 
     83 H83        29.9787   22.8593    2.8237 H         1 UNK         0.1562 
     84 H84        30.4071   23.4749    6.3915 H         1 UNK         0.0748 
     85 H85        29.2558   23.4939    5.0808 H         1 UNK         0.0748 
     86 H86        28.3187   25.8580    4.0213 H         1 UNK         0.0940 
     87 H87        29.6936   25.3055    3.1099 H         1 UNK         0.0940 
     88 H88        30.7004   27.6571    3.2905 H         1 UNK         0.0703 
     89 H89        28.9184   26.6346    1.4756 H         1 UNK         0.3081 
     90 H90        28.0765   29.4017   -0.5604 H         1 UNK         0.0719 
     91 H91        29.0266   27.9048   -2.3226 H         1 UNK         0.0809 
     92 H92        30.2950   28.7334   -1.4330 H         1 UNK         0.0809 
     93 H93        29.9543   27.0454   -1.0930 H         1 UNK         0.0809 
     94 H94        27.3632   26.7545   -0.9685 H         1 UNK         0.2990 
     95 H95        24.5172   26.5410    1.2221 H         1 UNK         0.0690 
     96 H96        23.9080   27.6882   -0.8914 H         1 UNK         0.0788 
     97 H97        23.5859   25.9656   -1.0038 H         1 UNK         0.0788 
     98 H98        24.9953   26.6549   -1.8056 H         1 UNK         0.0788 
     99 H99        26.0785   24.7856   -0.5523 H         1 UNK         0.2993 
    100 H100       27.6171   23.0410    2.1140 H         1 UNK         0.0949 
    101 H101       25.3351   22.0210    0.3348 H         1 UNK         0.0767 
    102 H102       26.5408   21.0241    1.1513 H         1 UNK         0.0767 
    103 H103       25.3722   21.9367    2.0907 H         1 UNK         0.0767 
    104 H104       27.5810   22.4820   -0.6653 H         1 UNK         0.3013 
    105 H105       27.2695   28.5147    3.0618 H         1 UNK         0.3121 
    106 H106       27.5186   30.3312    5.4372 H         1 UNK         0.0774 
    107 H107       25.0218   29.1518    4.1053 H         1 UNK         0.0815 
    108 H108       25.0316   30.2886    5.4479 H         1 UNK         0.0815 
    109 H109       25.6866   28.6735    5.6660 H         1 UNK         0.0815 
    110 H110       26.3926   30.0443    2.0306 H         1 UNK         0.2987 
    111 H111       25.4760   32.7434    1.8958 H         1 UNK         0.0949 
    112 H112       25.9673   30.6934   -0.3288 H         1 UNK         0.0806 
    113 H113       24.4775   30.8747    0.5949 H         1 UNK         0.0806 
    114 H114       25.0109   32.1606   -0.4756 H         1 UNK         0.0806 
    115 H115       28.6284   31.3201    1.0637 H         1 UNK         0.3010 
    116 H116       29.4249   33.8378   -0.3514 H         1 UNK         0.0829 
    117 H117       29.6040   31.7790   -1.7330 H         1 UNK         0.0813 
    118 H118       31.1774   32.4842   -1.4016 H         1 UNK         0.0813 
    119 H119       30.6682   31.0450   -0.5387 H         1 UNK         0.0813 
    120 H120       30.9448   31.2611    1.7191 H         1 UNK         0.3038 
    121 H121       31.9006   33.0820    3.6905 H         1 UNK         0.0769 
    122 H122       33.9485   32.1103    1.6009 H         1 UNK         0.0811 
    123 H123       34.3735   32.8382    3.1428 H         1 UNK         0.0811 
    124 H124       33.5383   33.7922    1.9331 H         1 UNK         0.0811 
    125 H125       32.9851   31.9600    5.3698 H         1 UNK         0.3204 
    126 H126       32.2708   29.2013    5.7140 H         1 UNK         0.0748 
    127 H127       33.4790   29.4770    7.8916 H         1 UNK         0.0771 
    128 H128       34.0965   31.0371    7.3680 H         1 UNK         0.0771 
    129 H129       32.3644   30.8048    7.6161 H         1 UNK         0.0771 
    130 H130       33.5653   27.3993    5.8589 H         1 UNK         0.2980 
    131 H131       35.7569   27.1628    4.0683 H         1 UNK         0.0545 
    132 H132       38.7435   27.1453    6.0146 H         1 UNK         0.3459 
    133 H133       38.0207   26.8133    4.4615 H         1 UNK         0.3459 
    134 H134       34.9042   25.0958    6.1644 H         1 UNK         0.0616 
    135 H135       33.9491   25.4490    4.7446 H         1 UNK         0.0616 
    136 H136       35.1577   22.5533    5.5999 H         1 UNK         0.0634 
    137 H137       35.6525   21.9084    4.0550 H         1 UNK         0.0634 
@<TRIPOS>BOND
     1    1    2 1    
     2    1   72 1    
     3    1   73 1    
     4    1   74 1    
     5    2    3 2    
     6    2    4 am   BACKBONE|DICT|INTERRES
     7    4    5 1    
     8    4   75 1    
     9    5    6 1    
    10    5   35 1    
    11    5   76 1    
    12    6    7 1    
    13    6   77 1    
    14    6   78 1    
    15    7    8 1    
    16    8    9 1    
    17    8   79 1    
    18    8   80 1    
    19    9   10 ar   
    20    9   14 ar   
    21   10   11 ar   
    22   10   81 1    
    23   11   12 ar   
    24   11   71 1    
    25   12   13 ar   
    26   12   82 1    
    27   13   14 ar   
    28   13   15 1    
    29   14   83 1    
    30   15   16 1    
    31   15   84 1    
    32   15   85 1    
    33   16   17 1    
    34   17   18 1    
    35   17   86 1    
    36   17   87 1    
    37   18   19 1    
    38   18   37 1    
    39   18   88 1    
    40   19   20 am   BACKBONE|DICT|INTERRES
    41   19   89 1    
    42   20   21 2    
    43   20   22 1    
    44   22   23 1    
    45   22   24 1    
    46   22   90 1    
    47   23   91 1    
    48   23   92 1    
    49   23   93 1    
    50   24   25 am   BACKBONE|DICT|INTERRES
    51   24   94 1    
    52   25   26 2    
    53   25   27 1    
    54   27   28 1    
    55   27   29 1    
    56   27   95 1    
    57   28   96 1    
    58   28   97 1    
    59   28   98 1    
    60   29   30 am   BACKBONE|DICT|INTERRES
    61   29   99 1    
    62   30   31 2    
    63   30   32 1    
    64   32   33 1    
    65   32   34 1    
    66   32  100 1    
    67   33  101 1    
    68   33  102 1    
    69   33  103 1    
    70   34   35 am   BACKBONE|DICT|INTERRES
    71   34  104 1    
    72   35   36 2    
    73   37   38 2    
    74   37   39 am   BACKBONE|DICT|INTERRES
    75   39   40 1    
    76   39  105 1    
    77   40   41 1    
    78   40   42 1    
    79   40  106 1    
    80   41  107 1    
    81   41  108 1    
    82   41  109 1    
    83   42   43 2    
    84   42   44 am   BACKBONE|DICT|INTERRES
    85   44   45 1    
    86   44  110 1    
    87   45   46 1    
    88   45   47 1    
    89   45  111 1    
    90   46  112 1    
    91   46  113 1    
    92   46  114 1    
    93   47   48 2    
    94   47   49 am   BACKBONE|DICT|INTERRES
    95   49   50 1    
    96   49  115 1    
    97   50   51 1    
    98   50   52 1    
    99   50  116 1    
   100   51  117 1    
   101   51  118 1    
   102   51  119 1    
   103   52   53 2    
   104   52   54 am   BACKBONE|DICT|INTERRES
   105   54   55 1    
   106   54  120 1    
   107   55   56 1    
   108   55   57 1    
   109   55  121 1    
   110   56  122 1    
   111   56  123 1    
   112   56  124 1    
   113   57   58 2    
   114   57   59 am   BACKBONE|DICT|INTERRES
   115   59   60 1    
   116   59  125 1    
   117   60   61 1    
   118   60   62 1    
   119   60  126 1    
   120   61  127 1    
   121   61  128 1    
   122   61  129 1    
   123   62   63 2    
   124   62   64 am   BACKBONE|DICT|INTERRES
   125   64   65 1    
   126   64  130 1    
   127   65   66 1    
   128   65   69 1    
   129   65  131 1    
   130   66   67 am   BACKBONE|DICT|INTERRES
   131   66   68 2    
   132   67  132 1    
   133   67  133 1    
   134   69   70 1    
   135   69  134 1    
   136   69  135 1    
   137   70   71 1    
   138   71  136 1    
   139   71  137 1    
@<TRIPOS>SUBSTRUCTURE
     1 UNK         1 GROUP             0       ****    0 ROOT    
