@<TRIPOS>MOLECULE
3R136
137   139    1
SMALL
USER_CHARGES


@<TRIPOS>ATOM
      1 CA         30.2716   25.9343   -2.2082 C.3       0 UNK        -0.1979 
      2 C          29.6655   24.9548   -1.2156 C.2       0 UNK         0.4864 
      3 O          28.5151   25.1323   -0.8113 O.2       0 UNK        -0.5359 
      4 N          30.4208   23.9226   -0.8173 N.am      1 UNK        -0.4318 
      5 CA         30.0020   22.9083    0.1554 C.3       1 UNK         0.0824 
      6 C6         31.1321   21.9061    0.4955 C.3       12 UNK        -0.0944 
      7 S7         32.6145   22.7116    1.1899 S.3       12 UNK        -0.2672 
      8 C8         32.3790   22.4516    2.9774 C.3       12 UNK         0.0333 
      9 C9         31.3676   23.4299    3.5561 C.ar      12 UNK        -0.0807 
     10 C10        31.7797   24.7092    3.9403 C.ar      12 UNK        -0.0894 
     11 C11        30.8617   25.6178    4.4723 C.ar      12 UNK        -0.0804 
     12 C12        29.5248   25.2420    4.6191 C.ar      12 UNK        -0.0824 
     13 C13        29.0944   23.9752    4.2165 C.ar      12 UNK        -0.0762 
     14 C14        30.0251   23.0645    3.7045 C.ar      12 UNK        -0.0782 
     15 C15        27.6258   23.5936    4.3293 C.3       12 UNK         0.0230 
     16 S16        26.6436   24.2926    2.9604 S.3       12 UNK        -0.2608 
     17 C17        26.2514   25.9689    3.5707 C.3       12 UNK        -0.0989 
     18 CA         26.9104   27.0893    2.7269 C.3       5 UNK         0.0716 
     19 N          26.4112   27.0973    1.3481 N.am      5 UNK        -0.4135 
     20 C          26.8676   27.8827    0.3626 C.2       4 UNK         0.5031 
     21 O          27.8379   28.6348    0.4740 O.2       4 UNK        -0.5229 
     22 CA         26.1197   27.7823   -0.9748 C.3       4 UNK         0.0329 
     23 CB         26.6858   28.7189   -2.0615 C.3       4 UNK        -0.2001 
     24 N          26.1679   26.4002   -1.4391 N.am      4 UNK        -0.4303 
     25 C          25.2420   25.7944   -2.1908 C.2       3 UNK         0.5044 
     26 O          24.2005   26.3365   -2.5627 O.2       3 UNK        -0.5152 
     27 CA         25.5132   24.3374   -2.5918 C.3       3 UNK         0.0319 
     28 CB         26.4644   24.2745   -3.7988 C.3       3 UNK        -0.2001 
     29 N          26.0847   23.5721   -1.4807 N.am      3 UNK        -0.4354 
     30 C          25.5900   22.4197   -1.0056 C.2       2 UNK         0.4964 
     31 O          24.5898   21.8692   -1.4697 O.2       2 UNK        -0.5047 
     32 CA         26.3022   21.7743    0.2036 C.3       2 UNK         0.0288 
     33 CB         26.2972   20.2311    0.1440 C.3       2 UNK        -0.2113 
     34 N          27.6533   22.2918    0.4577 N.am      2 UNK        -0.4145 
     35 C          28.7393   22.1615   -0.3192 C.2       1 UNK         0.5006 
     36 O          28.7742   21.5213   -1.3726 O.2       1 UNK        -0.5103 
     37 C          26.6759   28.4629    3.3906 C.2       5 UNK         0.5055 
     38 O          25.5633   28.9916    3.3149 O.2       5 UNK        -0.5220 
     39 N          27.7146   29.0030    4.0329 N.am      6 UNK        -0.4450 
     40 CA         27.7229   30.3031    4.6989 C.3       6 UNK         0.0367 
     41 CB         27.9303   31.4215    3.6528 C.3       6 UNK        -0.1929 
     42 C          28.7928   30.2739    5.8032 C.2       6 UNK         0.5070 
     43 O          28.9981   29.2242    6.4166 O.2       6 UNK        -0.5237 
     44 N          29.4637   31.4077    6.0405 N.am      7 UNK        -0.4739 
     45 CA         30.6569   31.4962    6.8842 C.3       7 UNK         0.0276 
     46 CB         30.9012   32.9686    7.2523 C.3       7 UNK        -0.1927 
     47 C          31.8755   30.9281    6.1406 C.2       7 UNK         0.5013 
     48 O          31.9590   31.0749    4.9194 O.2       7 UNK        -0.5193 
     49 N          32.8282   30.3476    6.8824 N.am      8 UNK        -0.4253 
     50 CA         34.0294   29.6855    6.3508 C.3       8 UNK         0.0242 
     51 CB         34.8485   29.1085    7.5165 C.3       8 UNK        -0.2000 
     52 C          34.9212   30.5571    5.4449 C.2       8 UNK         0.4948 
     53 O          35.6001   30.0149    4.5734 O.2       8 UNK        -0.5275 
     54 N          34.8881   31.8815    5.6459 N.am      9 UNK        -0.4246 
     55 CA         35.5585   32.8679    4.7962 C.3       9 UNK         0.0261 
     56 CB         35.6680   34.1962    5.5631 C.3       9 UNK        -0.1959 
     57 C          34.8597   33.0897    3.4395 C.2       9 UNK         0.5033 
     58 O          35.5198   33.5395    2.5015 O.2       9 UNK        -0.5390 
     59 N          33.5532   32.8008    3.3562 N.am      10 UNK        -0.4215 
     60 CA         32.7384   32.9517    2.1494 C.3       10 UNK         0.0240 
     61 CB         31.3399   33.4597    2.5392 C.3       10 UNK        -0.1982 
     62 C          32.6366   31.6390    1.3569 C.2       10 UNK         0.4970 
     63 O          32.5619   31.6950    0.1286 O.2       10 UNK        -0.4916 
     64 N          32.6303   30.4945    2.0555 N.am      11 UNK        -0.4279 
     65 CA         32.6089   29.1442    1.4680 C.3       11 UNK         0.1003 
     66 C          33.8271   28.8559    0.5464 C.2       11 UNK         0.5709 
     67 N          33.6276   28.0997   -0.5250 N.am      11 UNK        -0.7358 
     68 O          34.9526   29.2729    0.8137 O.2       11 UNK        -0.4999 
     69 C69        32.4940   28.0453    2.5553 C.3       12 UNK        -0.0954 
     70 S70        30.9808   28.2095    3.5523 S.3       12 UNK        -0.2268 
     71 C71        31.3025   27.0118    4.8808 C.3       12 UNK         0.0203 
     72 H72        30.2211   26.9471   -1.8091 H         1 UNK         0.0888 
     73 H73        31.3146   25.7033   -2.4237 H         1 UNK         0.0888 
     74 H74        29.7160   25.9102   -3.1450 H         1 UNK         0.0888 
     75 H75        31.3552   23.8119   -1.1837 H         1 UNK         0.3017 
     76 H76        29.7489   23.4563    1.0636 H         1 UNK         0.0873 
     77 H77        31.4376   21.3621   -0.4005 H         1 UNK         0.0745 
     78 H78        30.7776   21.1482    1.1964 H         1 UNK         0.0745 
     79 H79        33.3396   22.5843    3.4775 H         1 UNK         0.0705 
     80 H80        32.0798   21.4206    3.1722 H         1 UNK         0.0705 
     81 H81        32.8144   24.9995    3.8181 H         1 UNK         0.1334 
     82 H82        28.8187   25.9474    5.0327 H         1 UNK         0.1417 
     83 H83        29.7025   22.0769    3.4042 H         1 UNK         0.1562 
     84 H84        27.2222   23.9132    5.2911 H         1 UNK         0.0748 
     85 H85        27.5196   22.5078    4.3090 H         1 UNK         0.0748 
     86 H86        26.5444   26.0504    4.6184 H         1 UNK         0.0940 
     87 H87        25.1652   26.0817    3.5666 H         1 UNK         0.0940 
     88 H88        27.9862   26.9049    2.6800 H         1 UNK         0.0703 
     89 H89        25.6174   26.5032    1.1623 H         1 UNK         0.3081 
     90 H90        25.0835   28.0663   -0.7788 H         1 UNK         0.0719 
     91 H91        26.6674   29.7581   -1.7306 H         1 UNK         0.0809 
     92 H92        27.7193   28.4697   -2.3055 H         1 UNK         0.0809 
     93 H93        26.1014   28.6616   -2.9798 H         1 UNK         0.0809 
     94 H94        27.0167   25.8937   -1.1803 H         1 UNK         0.2990 
     95 H95        24.5553   23.9100   -2.8955 H         1 UNK         0.0690 
     96 H96        27.4457   24.6873   -3.5633 H         1 UNK         0.0788 
     97 H97        26.0645   24.8394   -4.6420 H         1 UNK         0.0788 
     98 H98        26.6069   23.2471   -4.1341 H         1 UNK         0.0788 
     99 H99        26.9170   23.9604   -1.0484 H         1 UNK         0.2993 
    100 H100       25.7079   22.0621    1.0720 H         1 UNK         0.0949 
    101 H101       26.7950   19.8568   -0.7509 H         1 UNK         0.0767 
    102 H102       26.7952   19.7988    1.0120 H         1 UNK         0.0767 
    103 H103       25.2780   19.8428    0.1322 H         1 UNK         0.0767 
    104 H104       27.7241   22.8850    1.2755 H         1 UNK         0.3013 
    105 H105       28.5916   28.4988    4.0887 H         1 UNK         0.3121 
    106 H106       26.7626   30.4556    5.1958 H         1 UNK         0.0774 
    107 H107       27.8670   32.4133    4.1012 H         1 UNK         0.0815 
    108 H108       28.9001   31.3314    3.1618 H         1 UNK         0.0815 
    109 H109       27.1667   31.3818    2.8759 H         1 UNK         0.0815 
    110 H110       29.2596   32.2131    5.4678 H         1 UNK         0.2987 
    111 H111       30.4919   30.9208    7.7980 H         1 UNK         0.0949 
    112 H112       30.0460   33.3921    7.7794 H         1 UNK         0.0806 
    113 H113       31.7663   33.0710    7.9088 H         1 UNK         0.0806 
    114 H114       31.0875   33.5817    6.3691 H         1 UNK         0.0806 
    115 H115       32.6958   30.2957    7.8826 H         1 UNK         0.3010 
    116 H116       33.6858   28.8538    5.7343 H         1 UNK         0.0829 
    117 H117       34.2680   28.3875    8.0925 H         1 UNK         0.0813 
    118 H118       35.7350   28.5875    7.1514 H         1 UNK         0.0813 
    119 H119       35.1876   29.8902    8.1973 H         1 UNK         0.0813 
    120 H120       34.3157   32.2369    6.3977 H         1 UNK         0.3038 
    121 H121       36.5697   32.5111    4.5882 H         1 UNK         0.0769 
    122 H122       36.1918   34.9470    4.9696 H         1 UNK         0.0811 
    123 H123       36.2257   34.0743    6.4919 H         1 UNK         0.0811 
    124 H124       34.6865   34.6035    5.8097 H         1 UNK         0.0811 
    125 H125       33.0915   32.3580    4.1464 H         1 UNK         0.3204 
    126 H126       33.1903   33.6981    1.4925 H         1 UNK         0.0748 
    127 H127       30.7091   33.5835    1.6579 H         1 UNK         0.0771 
    128 H128       30.8302   32.7695    3.2109 H         1 UNK         0.0771 
    129 H129       31.3962   34.4281    3.0364 H         1 UNK         0.0771 
    130 H130       32.6171   30.5390    3.0678 H         1 UNK         0.2980 
    131 H131       31.7112   29.0947    0.8481 H         1 UNK         0.0545 
    132 H132       34.4085   27.8895   -1.1264 H         1 UNK         0.3459 
    133 H133       32.7120   27.7454   -0.7489 H         1 UNK         0.3459 
    134 H134       32.4831   27.0527    2.1007 H         1 UNK         0.0616 
    135 H135       33.3610   28.0775    3.2179 H         1 UNK         0.0616 
    136 H136       32.3589   27.0170    5.1497 H         1 UNK         0.0634 
    137 H137       30.7617   27.3206    5.7759 H         1 UNK         0.0634 
@<TRIPOS>BOND
     1    1    2 1    
     2    1   72 1    
     3    1   73 1    
     4    1   74 1    
     5    2    3 2    
     6    2    4 am   BACKBONE|DICT|INTERRES
     7    4    5 1    
     8    4   75 1    
     9    5    6 1    
    10    5   35 1    
    11    5   76 1    
    12    6    7 1    
    13    6   77 1    
    14    6   78 1    
    15    7    8 1    
    16    8    9 1    
    17    8   79 1    
    18    8   80 1    
    19    9   10 ar   
    20    9   14 ar   
    21   10   11 ar   
    22   10   81 1    
    23   11   12 ar   
    24   11   71 1    
    25   12   13 ar   
    26   12   82 1    
    27   13   14 ar   
    28   13   15 1    
    29   14   83 1    
    30   15   16 1    
    31   15   84 1    
    32   15   85 1    
    33   16   17 1    
    34   17   18 1    
    35   17   86 1    
    36   17   87 1    
    37   18   19 1    
    38   18   37 1    
    39   18   88 1    
    40   19   20 am   BACKBONE|DICT|INTERRES
    41   19   89 1    
    42   20   21 2    
    43   20   22 1    
    44   22   23 1    
    45   22   24 1    
    46   22   90 1    
    47   23   91 1    
    48   23   92 1    
    49   23   93 1    
    50   24   25 am   BACKBONE|DICT|INTERRES
    51   24   94 1    
    52   25   26 2    
    53   25   27 1    
    54   27   28 1    
    55   27   29 1    
    56   27   95 1    
    57   28   96 1    
    58   28   97 1    
    59   28   98 1    
    60   29   30 am   BACKBONE|DICT|INTERRES
    61   29   99 1    
    62   30   31 2    
    63   30   32 1    
    64   32   33 1    
    65   32   34 1    
    66   32  100 1    
    67   33  101 1    
    68   33  102 1    
    69   33  103 1    
    70   34   35 am   BACKBONE|DICT|INTERRES
    71   34  104 1    
    72   35   36 2    
    73   37   38 2    
    74   37   39 am   BACKBONE|DICT|INTERRES
    75   39   40 1    
    76   39  105 1    
    77   40   41 1    
    78   40   42 1    
    79   40  106 1    
    80   41  107 1    
    81   41  108 1    
    82   41  109 1    
    83   42   43 2    
    84   42   44 am   BACKBONE|DICT|INTERRES
    85   44   45 1    
    86   44  110 1    
    87   45   46 1    
    88   45   47 1    
    89   45  111 1    
    90   46  112 1    
    91   46  113 1    
    92   46  114 1    
    93   47   48 2    
    94   47   49 am   BACKBONE|DICT|INTERRES
    95   49   50 1    
    96   49  115 1    
    97   50   51 1    
    98   50   52 1    
    99   50  116 1    
   100   51  117 1    
   101   51  118 1    
   102   51  119 1    
   103   52   53 2    
   104   52   54 am   BACKBONE|DICT|INTERRES
   105   54   55 1    
   106   54  120 1    
   107   55   56 1    
   108   55   57 1    
   109   55  121 1    
   110   56  122 1    
   111   56  123 1    
   112   56  124 1    
   113   57   58 2    
   114   57   59 am   BACKBONE|DICT|INTERRES
   115   59   60 1    
   116   59  125 1    
   117   60   61 1    
   118   60   62 1    
   119   60  126 1    
   120   61  127 1    
   121   61  128 1    
   122   61  129 1    
   123   62   63 2    
   124   62   64 am   BACKBONE|DICT|INTERRES
   125   64   65 1    
   126   64  130 1    
   127   65   66 1    
   128   65   69 1    
   129   65  131 1    
   130   66   67 am   BACKBONE|DICT|INTERRES
   131   66   68 2    
   132   67  132 1    
   133   67  133 1    
   134   69   70 1    
   135   69  134 1    
   136   69  135 1    
   137   70   71 1    
   138   71  136 1    
   139   71  137 1    
@<TRIPOS>SUBSTRUCTURE
     1 UNK         1 GROUP             0       ****    0 ROOT    
