@<TRIPOS>MOLECULE
3R136
137   139    1
SMALL
USER_CHARGES


@<TRIPOS>ATOM
      1 CA         28.1183   22.3450    0.4785 C.3       0 UNK        -0.1979 
      2 C          29.1299   23.3849    0.0237 C.2       0 UNK         0.4864 
      3 O          28.9619   24.5737    0.3068 O.2       0 UNK        -0.5359 
      4 N          30.1628   22.9159   -0.6907 N.am      1 UNK        -0.4318 
      5 CA         31.2710   23.6659   -1.2947 C.3       1 UNK         0.0824 
      6 C6         32.4879   23.8891   -0.3446 C.3       12 UNK        -0.0944 
      7 S7         32.1569   24.9090    1.1339 S.3       12 UNK        -0.2672 
      8 C8         32.4280   23.7225    2.4872 C.3       12 UNK         0.0333 
      9 C9         31.4705   23.9704    3.6425 C.ar      12 UNK        -0.0807 
     10 C10        31.7460   24.9517    4.6001 C.ar      12 UNK        -0.0894 
     11 C11        30.8707   25.1697    5.6744 C.ar      12 UNK        -0.0804 
     12 C12        29.7213   24.3793    5.7809 C.ar      12 UNK        -0.0824 
     13 C13        29.4385   23.3915    4.8341 C.ar      12 UNK        -0.0762 
     14 C14        30.3150   23.1952    3.7650 C.ar      12 UNK        -0.0782 
     15 C15        28.1989   22.5205    4.9754 C.3       12 UNK         0.0230 
     16 S16        26.9160   22.9589    3.7628 S.3       12 UNK        -0.2608 
     17 C17        26.4125   24.6196    4.3250 C.3       12 UNK        -0.0989 
     18 CA         27.0472   25.7818    3.5038 C.3       5 UNK         0.0716 
     19 N          26.8616   25.6562    2.0498 N.am      5 UNK        -0.4135 
     20 C          25.6984   25.6123    1.3861 C.2       4 UNK         0.5031 
     21 O          24.5931   25.6864    1.9269 O.2       4 UNK        -0.5229 
     22 CA         25.8039   25.5045   -0.1529 C.3       4 UNK         0.0329 
     23 CB         24.4409   25.6767   -0.8573 C.3       4 UNK        -0.2001 
     24 N          26.7973   26.4230   -0.7343 N.am      4 UNK        -0.4303 
     25 C          26.8343   27.7519   -0.5621 C.2       3 UNK         0.5044 
     26 O          26.0415   28.3591    0.1564 O.2       3 UNK        -0.5152 
     27 CA         27.9242   28.5449   -1.2970 C.3       3 UNK         0.0319 
     28 CB         28.2578   29.8663   -0.5768 C.3       3 UNK        -0.2001 
     29 N          29.1547   27.7782   -1.5301 N.am      3 UNK        -0.4354 
     30 C          29.9608   28.0029   -2.5793 C.2       2 UNK         0.4964 
     31 O          29.6861   28.7867   -3.4896 O.2       2 UNK        -0.5047 
     32 CA         31.3180   27.2805   -2.6381 C.3       2 UNK         0.0288 
     33 CB         32.4532   28.2359   -2.2292 C.3       2 UNK        -0.2113 
     34 N          31.4202   26.0620   -1.8368 N.am      2 UNK        -0.4145 
     35 C          30.8143   24.9002   -2.1079 C.2       1 UNK         0.5006 
     36 O          29.9701   24.7612   -2.9964 O.2       1 UNK        -0.5103 
     37 C          26.6425   27.1613    4.0873 C.2       5 UNK         0.5055 
     38 O          26.5702   27.2839    5.3127 O.2       5 UNK        -0.5220 
     39 N          26.3927   28.1804    3.2480 N.am      6 UNK        -0.4450 
     40 CA         26.1144   29.5563    3.6847 C.3       6 UNK         0.0367 
     41 CB         25.4735   30.3372    2.5243 C.3       6 UNK        -0.1929 
     42 C          27.3812   30.2745    4.1890 C.2       6 UNK         0.5070 
     43 O          28.4843   29.7416    4.0819 O.2       6 UNK        -0.5237 
     44 N          27.2212   31.5082    4.6871 N.am      7 UNK        -0.4739 
     45 CA         28.3079   32.3500    5.2145 C.3       7 UNK         0.0276 
     46 CB         27.7054   33.6439    5.7863 C.3       7 UNK        -0.1927 
     47 C          29.4331   32.6800    4.2091 C.2       7 UNK         0.5013 
     48 O          30.5378   33.0182    4.6345 O.2       7 UNK        -0.5193 
     49 N          29.1390   32.5702    2.9069 N.am      8 UNK        -0.4253 
     50 CA         30.0852   32.7506    1.8038 C.3       8 UNK         0.0242 
     51 CB         29.3206   33.3219    0.5958 C.3       8 UNK        -0.2000 
     52 C          30.8495   31.4637    1.4218 C.2       8 UNK         0.4948 
     53 O          31.6303   31.5073    0.4691 O.2       8 UNK        -0.5275 
     54 N          30.6084   30.3423    2.1209 N.am      9 UNK        -0.4246 
     55 CA         31.2641   29.0504    1.8892 C.3       9 UNK         0.0261 
     56 CB         30.5287   27.9651    2.6936 C.3       9 UNK        -0.1959 
     57 C          32.7680   29.0671    2.2264 C.2       9 UNK         0.5033 
     58 O          33.2518   29.9822    2.8987 O.2       9 UNK        -0.5390 
     59 N          33.4816   28.0237    1.7768 N.am      10 UNK        -0.4215 
     60 CA         34.9408   27.8714    1.8831 C.3       10 UNK         0.0240 
     61 CB         35.3783   26.6261    1.0939 C.3       10 UNK        -0.1982 
     62 C          35.4970   27.8211    3.3203 C.2       10 UNK         0.4970 
     63 O          36.7025   27.9970    3.5013 O.2       10 UNK        -0.4916 
     64 N          34.6219   27.6022    4.3081 N.am      11 UNK        -0.4279 
     65 CA         34.9064   27.7573    5.7399 C.3       11 UNK         0.1003 
     66 C          35.1553   29.2274    6.1957 C.2       11 UNK         0.5709 
     67 N          34.7875   30.2417    5.4196 N.am      11 UNK        -0.7358 
     68 O          35.7071   29.4477    7.2714 O.2       11 UNK        -0.4999 
     69 C69        33.8242   27.0609    6.6064 C.3       12 UNK        -0.0954 
     70 S70        32.1286   27.6520    6.2611 S.3       12 UNK        -0.2268 
     71 C71        31.1315   26.2113    6.7650 C.3       12 UNK         0.0203 
     72 H72        27.8559   21.6728   -0.3381 H         1 UNK         0.0888 
     73 H73        28.5248   21.7520    1.2967 H         1 UNK         0.0888 
     74 H74        27.2029   22.8170    0.8290 H         1 UNK         0.0888 
     75 H75        30.1840   21.9250   -0.8853 H         1 UNK         0.3017 
     76 H76        31.6408   22.9920   -2.0692 H         1 UNK         0.0873 
     77 H77        32.8698   22.9167   -0.0322 H         1 UNK         0.0745 
     78 H78        33.3194   24.3400   -0.8895 H         1 UNK         0.0745 
     79 H79        33.4607   23.7996    2.8303 H         1 UNK         0.0705 
     80 H80        32.3010   22.7010    2.1266 H         1 UNK         0.0705 
     81 H81        32.6469   25.5360    4.4983 H         1 UNK         0.1334 
     82 H82        29.0448   24.5295    6.6114 H         1 UNK         0.1417 
     83 H83        30.0983   22.4323    3.0308 H         1 UNK         0.1562 
     84 H84        27.7857   22.5858    5.9832 H         1 UNK         0.0748 
     85 H85        28.4763   21.4756    4.8294 H         1 UNK         0.0748 
     86 H86        26.6631   24.7129    5.3831 H         1 UNK         0.0940 
     87 H87        25.3237   24.6725    4.2782 H         1 UNK         0.0940 
     88 H88        28.1271   25.7268    3.6483 H         1 UNK         0.0703 
     89 H89        27.7116   25.5219    1.5072 H         1 UNK         0.3081 
     90 H90        26.1528   24.4959   -0.3710 H         1 UNK         0.0719 
     91 H91        24.5344   25.5609   -1.9370 H         1 UNK         0.0809 
     92 H92        24.0058   26.6575   -0.6614 H         1 UNK         0.0809 
     93 H93        23.7253   24.9290   -0.5130 H         1 UNK         0.0809 
     94 H94        27.5135   25.9923   -1.3036 H         1 UNK         0.2990 
     95 H95        27.4785   28.7957   -2.2618 H         1 UNK         0.0690 
     96 H96        29.0611   30.4103   -1.0738 H         1 UNK         0.0788 
     97 H97        28.5567   29.6850    0.4547 H         1 UNK         0.0788 
     98 H98        27.3904   30.5269   -0.5529 H         1 UNK         0.0788 
     99 H99        29.4233   27.0999   -0.8289 H         1 UNK         0.2993 
    100 H100       31.4760   26.9993   -3.6818 H         1 UNK         0.0949 
    101 H101       32.3696   28.5468   -1.1882 H         1 UNK         0.0767 
    102 H102       33.4312   27.7734   -2.3644 H         1 UNK         0.0767 
    103 H103       32.4403   29.1413   -2.8380 H         1 UNK         0.0767 
    104 H104       32.0647   26.0745   -1.0593 H         1 UNK         0.3013 
    105 H105       26.4401   28.0259    2.2477 H         1 UNK         0.3121 
    106 H106       25.4001   29.5167    4.5097 H         1 UNK         0.0774 
    107 H107       25.1122   31.3129    2.8501 H         1 UNK         0.0815 
    108 H108       26.1823   30.5074    1.7135 H         1 UNK         0.0815 
    109 H109       24.6172   29.8030    2.1118 H         1 UNK         0.0815 
    110 H110       26.2888   31.8940    4.7376 H         1 UNK         0.2987 
    111 H111       28.7743   31.7991    6.0343 H         1 UNK         0.0949 
    112 H112       26.9888   33.4328    6.5803 H         1 UNK         0.0806 
    113 H113       28.4808   34.2803    6.2154 H         1 UNK         0.0806 
    114 H114       27.1959   34.2258    5.0172 H         1 UNK         0.0806 
    115 H115       28.2038   32.2813    2.6610 H         1 UNK         0.3010 
    116 H116       30.8389   33.4841    2.0983 H         1 UNK         0.0829 
    117 H117       28.8567   34.2781    0.8386 H         1 UNK         0.0813 
    118 H118       29.9886   33.4965   -0.2489 H         1 UNK         0.0813 
    119 H119       28.5356   32.6465    0.2564 H         1 UNK         0.0813 
    120 H120       29.9512   30.3707    2.8948 H         1 UNK         0.3038 
    121 H121       31.1617   28.8170    0.8283 H         1 UNK         0.0769 
    122 H122       29.4845   27.8881    2.3909 H         1 UNK         0.0811 
    123 H123       30.5527   28.1738    3.7632 H         1 UNK         0.0811 
    124 H124       30.9687   26.9810    2.5560 H         1 UNK         0.0811 
    125 H125       32.9951   27.2746    1.3038 H         1 UNK         0.3204 
    126 H126       35.3860   28.7470    1.4063 H         1 UNK         0.0748 
    127 H127       36.4659   26.5469    1.0635 H         1 UNK         0.0771 
    128 H128       35.0019   25.7083    1.5466 H         1 UNK         0.0771 
    129 H129       35.0305   26.6622    0.0612 H         1 UNK         0.0771 
    130 H130       33.6464   27.5171    4.0691 H         1 UNK         0.2980 
    131 H131       35.8452   27.2337    5.9302 H         1 UNK         0.0545 
    132 H132       34.9602   31.1843    5.7286 H         1 UNK         0.3459 
    133 H133       34.2998   30.0805    4.5427 H         1 UNK         0.3459 
    134 H134       33.8668   25.9842    6.4377 H         1 UNK         0.0616 
    135 H135       34.0304   27.1962    7.6697 H         1 UNK         0.0616 
    136 H136       30.1760   26.5990    7.1219 H         1 UNK         0.0634 
    137 H137       31.6015   25.7242    7.6203 H         1 UNK         0.0634 
@<TRIPOS>BOND
     1    1    2 1    
     2    1   72 1    
     3    1   73 1    
     4    1   74 1    
     5    2    3 2    
     6    2    4 am   BACKBONE|DICT|INTERRES
     7    4    5 1    
     8    4   75 1    
     9    5    6 1    
    10    5   35 1    
    11    5   76 1    
    12    6    7 1    
    13    6   77 1    
    14    6   78 1    
    15    7    8 1    
    16    8    9 1    
    17    8   79 1    
    18    8   80 1    
    19    9   10 ar   
    20    9   14 ar   
    21   10   11 ar   
    22   10   81 1    
    23   11   12 ar   
    24   11   71 1    
    25   12   13 ar   
    26   12   82 1    
    27   13   14 ar   
    28   13   15 1    
    29   14   83 1    
    30   15   16 1    
    31   15   84 1    
    32   15   85 1    
    33   16   17 1    
    34   17   18 1    
    35   17   86 1    
    36   17   87 1    
    37   18   19 1    
    38   18   37 1    
    39   18   88 1    
    40   19   20 am   BACKBONE|DICT|INTERRES
    41   19   89 1    
    42   20   21 2    
    43   20   22 1    
    44   22   23 1    
    45   22   24 1    
    46   22   90 1    
    47   23   91 1    
    48   23   92 1    
    49   23   93 1    
    50   24   25 am   BACKBONE|DICT|INTERRES
    51   24   94 1    
    52   25   26 2    
    53   25   27 1    
    54   27   28 1    
    55   27   29 1    
    56   27   95 1    
    57   28   96 1    
    58   28   97 1    
    59   28   98 1    
    60   29   30 am   BACKBONE|DICT|INTERRES
    61   29   99 1    
    62   30   31 2    
    63   30   32 1    
    64   32   33 1    
    65   32   34 1    
    66   32  100 1    
    67   33  101 1    
    68   33  102 1    
    69   33  103 1    
    70   34   35 am   BACKBONE|DICT|INTERRES
    71   34  104 1    
    72   35   36 2    
    73   37   38 2    
    74   37   39 am   BACKBONE|DICT|INTERRES
    75   39   40 1    
    76   39  105 1    
    77   40   41 1    
    78   40   42 1    
    79   40  106 1    
    80   41  107 1    
    81   41  108 1    
    82   41  109 1    
    83   42   43 2    
    84   42   44 am   BACKBONE|DICT|INTERRES
    85   44   45 1    
    86   44  110 1    
    87   45   46 1    
    88   45   47 1    
    89   45  111 1    
    90   46  112 1    
    91   46  113 1    
    92   46  114 1    
    93   47   48 2    
    94   47   49 am   BACKBONE|DICT|INTERRES
    95   49   50 1    
    96   49  115 1    
    97   50   51 1    
    98   50   52 1    
    99   50  116 1    
   100   51  117 1    
   101   51  118 1    
   102   51  119 1    
   103   52   53 2    
   104   52   54 am   BACKBONE|DICT|INTERRES
   105   54   55 1    
   106   54  120 1    
   107   55   56 1    
   108   55   57 1    
   109   55  121 1    
   110   56  122 1    
   111   56  123 1    
   112   56  124 1    
   113   57   58 2    
   114   57   59 am   BACKBONE|DICT|INTERRES
   115   59   60 1    
   116   59  125 1    
   117   60   61 1    
   118   60   62 1    
   119   60  126 1    
   120   61  127 1    
   121   61  128 1    
   122   61  129 1    
   123   62   63 2    
   124   62   64 am   BACKBONE|DICT|INTERRES
   125   64   65 1    
   126   64  130 1    
   127   65   66 1    
   128   65   69 1    
   129   65  131 1    
   130   66   67 am   BACKBONE|DICT|INTERRES
   131   66   68 2    
   132   67  132 1    
   133   67  133 1    
   134   69   70 1    
   135   69  134 1    
   136   69  135 1    
   137   70   71 1    
   138   71  136 1    
   139   71  137 1    
@<TRIPOS>SUBSTRUCTURE
     1 UNK         1 GROUP             0       ****    0 ROOT    
