@<TRIPOS>MOLECULE
3R136
137   139    1
SMALL
USER_CHARGES


@<TRIPOS>ATOM
      1 CA         29.9749   23.2167    7.5864 C.3       0 UNK        -0.1979 
      2 C          29.8123   23.2744    6.0752 C.2       0 UNK         0.4864 
      3 O          30.2708   24.2299    5.4508 O.2       0 UNK        -0.5359 
      4 N          29.1639   22.2609    5.4854 N.am      1 UNK        -0.4318 
      5 CA         28.8696   22.1102    4.0556 C.3       1 UNK         0.0824 
      6 C6         30.1379   22.0793    3.1566 C.3       12 UNK        -0.0944 
      7 S7         29.7860   21.4980    1.4648 S.3       12 UNK        -0.2672 
      8 C8         31.4477   21.5239    0.7235 C.3       12 UNK         0.0333 
      9 C9         31.9564   22.9351    0.4530 C.ar      12 UNK        -0.0807 
     10 C10        33.0937   23.4137    1.1108 C.ar      12 UNK        -0.0894 
     11 C11        33.6092   24.6771    0.8054 C.ar      12 UNK        -0.0804 
     12 C12        32.9794   25.4621   -0.1641 C.ar      12 UNK        -0.0824 
     13 C13        31.8230   25.0110   -0.8121 C.ar      12 UNK        -0.0762 
     14 C14        31.3228   23.7423   -0.4983 C.ar      12 UNK        -0.0782 
     15 C15        31.1235   25.8369   -1.8922 C.3       12 UNK         0.0230 
     16 S16        31.3483   27.6473   -1.7637 S.3       12 UNK        -0.2608 
     17 C17        30.2293   28.0797   -0.3894 C.3       12 UNK        -0.0989 
     18 CA         28.8776   28.6193   -0.9156 C.3       5 UNK         0.0716 
     19 N          28.1033   27.5666   -1.5694 N.am      5 UNK        -0.4135 
     20 C          27.4200   27.7165   -2.7107 C.2       4 UNK         0.5031 
     21 O          27.3434   28.7808   -3.3271 O.2       4 UNK        -0.5229 
     22 CA         26.7210   26.4740   -3.2960 C.3       4 UNK         0.0329 
     23 CB         27.5231   25.9239   -4.4873 C.3       4 UNK        -0.2001 
     24 N          26.5212   25.3975   -2.3247 N.am      4 UNK        -0.4303 
     25 C          25.6209   25.4218   -1.3344 C.2       3 UNK         0.5044 
     26 O          24.8149   26.3376   -1.1633 O.2       3 UNK        -0.5152 
     27 CA         25.6186   24.2326   -0.3575 C.3       3 UNK         0.0319 
     28 CB         26.4284   23.0043   -0.8377 C.3       3 UNK        -0.2001 
     29 N          26.0599   24.6498    0.9751 N.am      3 UNK        -0.4354 
     30 C          27.2470   25.1778    1.3091 C.2       2 UNK         0.4964 
     31 O          28.1639   25.3853    0.5106 O.2       2 UNK        -0.5047 
     32 CA         27.4684   25.4941    2.7991 C.3       2 UNK         0.0288 
     33 CB         26.1809   25.8679    3.5679 C.3       2 UNK        -0.2113 
     34 N          28.1905   24.3973    3.4524 N.am      2 UNK        -0.4145 
     35 C          27.8048   23.1173    3.5714 C.2       1 UNK         0.5006 
     36 O          26.6718   22.7069    3.3117 O.2       1 UNK        -0.5103 
     37 C          28.0406   29.2316    0.2189 C.2       5 UNK         0.5055 
     38 O          27.3121   28.5164    0.9113 O.2       5 UNK        -0.5220 
     39 N          28.1721   30.5513    0.3950 N.am      6 UNK        -0.4450 
     40 CA         27.5915   31.2934    1.5126 C.3       6 UNK         0.0367 
     41 CB         27.4489   32.7715    1.1133 C.3       6 UNK        -0.1929 
     42 C          28.4888   31.1639    2.7505 C.2       6 UNK         0.5070 
     43 O          29.7077   31.0460    2.6084 O.2       6 UNK        -0.5237 
     44 N          27.8840   31.2682    3.9421 N.am      7 UNK        -0.4739 
     45 CA         28.5506   31.1502    5.2480 C.3       7 UNK         0.0276 
     46 CB         27.5061   31.2927    6.3662 C.3       7 UNK        -0.1927 
     47 C          29.7165   32.1321    5.4731 C.2       7 UNK         0.5013 
     48 O          30.6288   31.8163    6.2366 O.2       7 UNK        -0.5193 
     49 N          29.7047   33.2684    4.7609 N.am      8 UNK        -0.4253 
     50 CA         30.7940   34.2472    4.6899 C.3       8 UNK         0.0242 
     51 CB         30.3409   35.4386    3.8303 C.3       8 UNK        -0.2000 
     52 C          32.1260   33.6777    4.1583 C.2       8 UNK         0.4948 
     53 O          33.1777   34.2319    4.4792 O.2       8 UNK        -0.5275 
     54 N          32.0749   32.5781    3.3892 N.am      9 UNK        -0.4246 
     55 CA         33.2501   31.8282    2.9349 C.3       9 UNK         0.0261 
     56 CB         32.8650   30.9911    1.7015 C.3       9 UNK        -0.1959 
     57 C          33.8540   30.9196    4.0251 C.2       9 UNK         0.5033 
     58 O          34.9276   30.3624    3.7957 O.2       9 UNK        -0.5390 
     59 N          33.1556   30.7570    5.1622 N.am      10 UNK        -0.4215 
     60 CA         33.4550   29.8583    6.2865 C.3       10 UNK         0.0240 
     61 CB         34.8160   30.1910    6.9355 C.3       10 UNK        -0.1982 
     62 C          33.3055   28.3603    5.9471 C.2       10 UNK         0.4970 
     63 O          33.7665   27.5187    6.7199 O.2       10 UNK        -0.4916 
     64 N          32.6370   28.0537    4.8308 N.am      11 UNK        -0.4279 
     65 CA         32.3106   26.7126    4.3390 C.3       11 UNK         0.1003 
     66 C          31.1685   26.7872    3.2844 C.2       11 UNK         0.5709 
     67 N          30.9411   25.7395    2.5053 N.am      11 UNK        -0.7358 
     68 O          30.4621   27.7876    3.1813 O.2       11 UNK        -0.4999 
     69 C69        33.5618   25.8869    3.9141 C.3       12 UNK        -0.0954 
     70 S70        34.5229   26.6375    2.5554 S.3       12 UNK        -0.2268 
     71 C71        34.8619   25.1922    1.5001 C.3       12 UNK         0.0203 
     72 H72        29.4941   24.0791    8.0472 H         1 UNK         0.0888 
     73 H73        29.5350   22.3146    8.0111 H         1 UNK         0.0888 
     74 H74        31.0322   23.2351    7.8492 H         1 UNK         0.0888 
     75 H75        28.7947   21.5225    6.0688 H         1 UNK         0.3017 
     76 H76        28.4074   21.1245    3.9764 H         1 UNK         0.0873 
     77 H77        30.8778   21.4062    3.5923 H         1 UNK         0.0745 
     78 H78        30.6167   23.0563    3.1034 H         1 UNK         0.0745 
     79 H79        31.4147   20.9778   -0.2202 H         1 UNK         0.0705 
     80 H80        32.1363   20.9743    1.3673 H         1 UNK         0.0705 
     81 H81        33.5907   22.7942    1.8450 H         1 UNK         0.1334 
     82 H82        33.3970   26.4299   -0.4026 H         1 UNK         0.1417 
     83 H83        30.4424   23.3709   -1.0052 H         1 UNK         0.1562 
     84 H84        30.0559   25.6144   -1.8974 H         1 UNK         0.0748 
     85 H85        31.5070   25.5164   -2.8615 H         1 UNK         0.0748 
     86 H86        30.7348   28.8306    0.2216 H         1 UNK         0.0940 
     87 H87        30.0838   27.2163    0.2600 H         1 UNK         0.0940 
     88 H88        29.0937   29.4129   -1.6347 H         1 UNK         0.0703 
     89 H89        28.0453   26.6920   -1.0580 H         1 UNK         0.3081 
     90 H90        25.7421   26.7924   -3.6612 H         1 UNK         0.0719 
     91 H91        27.6601   26.6895   -5.2524 H         1 UNK         0.0809 
     92 H92        28.5153   25.5856   -4.1854 H         1 UNK         0.0809 
     93 H93        27.0101   25.0860   -4.9598 H         1 UNK         0.0809 
     94 H94        27.1478   24.6079   -2.3798 H         1 UNK         0.2990 
     95 H95        24.5780   23.9210   -0.2573 H         1 UNK         0.0690 
     96 H96        26.3187   22.1737   -0.1400 H         1 UNK         0.0788 
     97 H97        27.4958   23.2113   -0.9238 H         1 UNK         0.0788 
     98 H98        26.0755   22.6529   -1.8082 H         1 UNK         0.0788 
     99 H99        25.3919   24.5101    1.7200 H         1 UNK         0.2993 
    100 H100       28.1216   26.3673    2.8289 H         1 UNK         0.0949 
    101 H101       25.6594   26.6874    3.0708 H         1 UNK         0.0767 
    102 H102       25.4815   25.0369    3.6574 H         1 UNK         0.0767 
    103 H103       26.4183   26.2053    4.5768 H         1 UNK         0.0767 
    104 H104       29.1323   24.6152    3.7644 H         1 UNK         0.3013 
    105 H105       28.8296   31.0569   -0.1808 H         1 UNK         0.3121 
    106 H106       26.6021   30.8907    1.7412 H         1 UNK         0.0774 
    107 H107       26.8225   32.8841    0.2282 H         1 UNK         0.0815 
    108 H108       26.9835   33.3505    1.9120 H         1 UNK         0.0815 
    109 H109       28.4161   33.2294    0.9002 H         1 UNK         0.0815 
    110 H110       26.8813   31.3920    3.9630 H         1 UNK         0.2987 
    111 H111       28.9738   30.1444    5.3003 H         1 UNK         0.0949 
    112 H112       26.7339   30.5271    6.2894 H         1 UNK         0.0806 
    113 H113       27.9683   31.1843    7.3487 H         1 UNK         0.0806 
    114 H114       27.0184   32.2680    6.3416 H         1 UNK         0.0806 
    115 H115       28.9116   33.4298    4.1579 H         1 UNK         0.3010 
    116 H116       30.9789   34.6045    5.7051 H         1 UNK         0.0829 
    117 H117       29.4524   35.9143    4.2458 H         1 UNK         0.0813 
    118 H118       31.1194   36.2014    3.7788 H         1 UNK         0.0813 
    119 H119       30.1143   35.1351    2.8073 H         1 UNK         0.0813 
    120 H120       31.1704   32.1701    3.1604 H         1 UNK         0.3038 
    121 H121       34.0231   32.5391    2.6354 H         1 UNK         0.0769 
    122 H122       33.7392   30.4953    1.2773 H         1 UNK         0.0811 
    123 H123       32.4312   31.6109    0.9168 H         1 UNK         0.0811 
    124 H124       32.1437   30.2118    1.9512 H         1 UNK         0.0811 
    125 H125       32.2866   31.2731    5.2674 H         1 UNK         0.3204 
    126 H126       32.6860   30.0640    7.0324 H         1 UNK         0.0748 
    127 H127       34.9445   29.6489    7.8731 H         1 UNK         0.0771 
    128 H128       35.6520   29.9197    6.2903 H         1 UNK         0.0771 
    129 H129       34.8976   31.2537    7.1639 H         1 UNK         0.0771 
    130 H130       32.2451   28.7984    4.2711 H         1 UNK         0.2980 
    131 H131       31.8625   26.1978    5.1880 H         1 UNK         0.0545 
    132 H132       30.2139   25.7907    1.8086 H         1 UNK         0.3459 
    133 H133       31.5696   24.9528    2.5111 H         1 UNK         0.3459 
    134 H134       34.2353   25.7698    4.7633 H         1 UNK         0.0616 
    135 H135       33.2690   24.8703    3.6510 H         1 UNK         0.0616 
    136 H136       35.5952   25.4759    0.7440 H         1 UNK         0.0634 
    137 H137       35.3284   24.4106    2.1017 H         1 UNK         0.0634 
@<TRIPOS>BOND
     1    1    2 1    
     2    1   72 1    
     3    1   73 1    
     4    1   74 1    
     5    2    3 2    
     6    2    4 am   BACKBONE|DICT|INTERRES
     7    4    5 1    
     8    4   75 1    
     9    5    6 1    
    10    5   35 1    
    11    5   76 1    
    12    6    7 1    
    13    6   77 1    
    14    6   78 1    
    15    7    8 1    
    16    8    9 1    
    17    8   79 1    
    18    8   80 1    
    19    9   10 ar   
    20    9   14 ar   
    21   10   11 ar   
    22   10   81 1    
    23   11   12 ar   
    24   11   71 1    
    25   12   13 ar   
    26   12   82 1    
    27   13   14 ar   
    28   13   15 1    
    29   14   83 1    
    30   15   16 1    
    31   15   84 1    
    32   15   85 1    
    33   16   17 1    
    34   17   18 1    
    35   17   86 1    
    36   17   87 1    
    37   18   19 1    
    38   18   37 1    
    39   18   88 1    
    40   19   20 am   BACKBONE|DICT|INTERRES
    41   19   89 1    
    42   20   21 2    
    43   20   22 1    
    44   22   23 1    
    45   22   24 1    
    46   22   90 1    
    47   23   91 1    
    48   23   92 1    
    49   23   93 1    
    50   24   25 am   BACKBONE|DICT|INTERRES
    51   24   94 1    
    52   25   26 2    
    53   25   27 1    
    54   27   28 1    
    55   27   29 1    
    56   27   95 1    
    57   28   96 1    
    58   28   97 1    
    59   28   98 1    
    60   29   30 am   BACKBONE|DICT|INTERRES
    61   29   99 1    
    62   30   31 2    
    63   30   32 1    
    64   32   33 1    
    65   32   34 1    
    66   32  100 1    
    67   33  101 1    
    68   33  102 1    
    69   33  103 1    
    70   34   35 am   BACKBONE|DICT|INTERRES
    71   34  104 1    
    72   35   36 2    
    73   37   38 2    
    74   37   39 am   BACKBONE|DICT|INTERRES
    75   39   40 1    
    76   39  105 1    
    77   40   41 1    
    78   40   42 1    
    79   40  106 1    
    80   41  107 1    
    81   41  108 1    
    82   41  109 1    
    83   42   43 2    
    84   42   44 am   BACKBONE|DICT|INTERRES
    85   44   45 1    
    86   44  110 1    
    87   45   46 1    
    88   45   47 1    
    89   45  111 1    
    90   46  112 1    
    91   46  113 1    
    92   46  114 1    
    93   47   48 2    
    94   47   49 am   BACKBONE|DICT|INTERRES
    95   49   50 1    
    96   49  115 1    
    97   50   51 1    
    98   50   52 1    
    99   50  116 1    
   100   51  117 1    
   101   51  118 1    
   102   51  119 1    
   103   52   53 2    
   104   52   54 am   BACKBONE|DICT|INTERRES
   105   54   55 1    
   106   54  120 1    
   107   55   56 1    
   108   55   57 1    
   109   55  121 1    
   110   56  122 1    
   111   56  123 1    
   112   56  124 1    
   113   57   58 2    
   114   57   59 am   BACKBONE|DICT|INTERRES
   115   59   60 1    
   116   59  125 1    
   117   60   61 1    
   118   60   62 1    
   119   60  126 1    
   120   61  127 1    
   121   61  128 1    
   122   61  129 1    
   123   62   63 2    
   124   62   64 am   BACKBONE|DICT|INTERRES
   125   64   65 1    
   126   64  130 1    
   127   65   66 1    
   128   65   69 1    
   129   65  131 1    
   130   66   67 am   BACKBONE|DICT|INTERRES
   131   66   68 2    
   132   67  132 1    
   133   67  133 1    
   134   69   70 1    
   135   69  134 1    
   136   69  135 1    
   137   70   71 1    
   138   71  136 1    
   139   71  137 1    
@<TRIPOS>SUBSTRUCTURE
     1 UNK         1 GROUP             0       ****    0 ROOT    
