@<TRIPOS>MOLECULE
3R136
137   139    1
SMALL
USER_CHARGES


@<TRIPOS>ATOM
      1 CA         28.8694   24.2518    5.8084 C.3       0 UNK        -0.1979 
      2 C          28.1605   23.4745    4.7099 C.2       0 UNK         0.4864 
      3 O          26.9927   23.1155    4.8677 O.2       0 UNK        -0.5359 
      4 N          28.8667   23.2001    3.6050 N.am      1 UNK        -0.4318 
      5 CA         28.3562   22.4861    2.4303 C.3       1 UNK         0.0824 
      6 C6         29.4842   22.0958    1.4417 C.3       12 UNK        -0.0944 
      7 S7         30.8095   21.1280    2.2464 S.3       12 UNK        -0.2672 
      8 C8         32.3281   21.8016    1.4820 C.3       12 UNK         0.0333 
      9 C9         32.4748   23.3165    1.6085 C.ar      12 UNK        -0.0807 
     10 C10        32.8430   24.0708    0.4899 C.ar      12 UNK        -0.0894 
     11 C11        32.9692   25.4602    0.5749 C.ar      12 UNK        -0.0804 
     12 C12        32.7114   26.0982    1.7931 C.ar      12 UNK        -0.0824 
     13 C13        32.3234   25.3604    2.9152 C.ar      12 UNK        -0.0762 
     14 C14        32.2387   23.9675    2.8240 C.ar      12 UNK        -0.0782 
     15 C15        31.9688   26.0592    4.2235 C.3       12 UNK         0.0230 
     16 S16        30.7167   27.3857    4.0567 S.3       12 UNK        -0.2608 
     17 C17        29.5009   26.7248    2.8591 C.3       12 UNK        -0.0989 
     18 CA         29.5089   27.5275    1.5303 C.3       5 UNK         0.0716 
     19 N          29.0689   26.7092    0.4013 N.am      5 UNK        -0.4135 
     20 C          29.3766   26.9767   -0.8745 C.2       4 UNK         0.5031 
     21 O          30.0596   27.9377   -1.2277 O.2       4 UNK        -0.5229 
     22 CA         28.8505   26.0047   -1.9409 C.3       4 UNK         0.0329 
     23 CB         29.6292   24.6794   -1.9071 C.3       4 UNK        -0.2001 
     24 N          27.4200   25.7376   -1.8069 N.am      4 UNK        -0.4303 
     25 C          26.4400   26.6157   -2.0528 C.2       3 UNK         0.5044 
     26 O          26.6392   27.7637   -2.4514 O.2       3 UNK        -0.5152 
     27 CA         24.9859   26.1510   -1.8292 C.3       3 UNK         0.0319 
     28 CB         24.3911   25.5545   -3.1203 C.3       3 UNK        -0.2001 
     29 N          24.7866   25.2552   -0.6787 N.am      3 UNK        -0.4354 
     30 C          25.2370   24.0059   -0.4974 C.2       2 UNK         0.4964 
     31 O          25.8878   23.3711   -1.3304 O.2       2 UNK        -0.5047 
     32 CA         24.9361   23.3700    0.8689 C.3       2 UNK         0.0288 
     33 CB         23.8013   22.3402    0.7457 C.3       2 UNK        -0.2113 
     34 N          26.1119   22.7272    1.4637 N.am      2 UNK        -0.4145 
     35 C          27.2811   23.3324    1.7215 C.2       1 UNK         0.5006 
     36 O          27.5353   24.5059    1.4315 O.2       1 UNK        -0.5103 
     37 C          28.6522   28.8007    1.6434 C.2       5 UNK         0.5055 
     38 O          27.4356   28.7436    1.4502 O.2       5 UNK        -0.5220 
     39 N          29.2907   29.9045    2.0477 N.am      6 UNK        -0.4450 
     40 CA         28.6497   31.1625    2.4397 C.3       6 UNK         0.0367 
     41 CB         29.5830   32.3289    2.0667 C.3       6 UNK        -0.1929 
     42 C          28.2928   31.1805    3.9419 C.2       6 UNK         0.5070 
     43 O          28.1393   32.2595    4.5162 O.2       6 UNK        -0.5237 
     44 N          28.2099   29.9952    4.5661 N.am      7 UNK        -0.4739 
     45 CA         27.9703   29.6885    5.9832 C.3       7 UNK         0.0276 
     46 CB         26.6306   30.2639    6.4820 C.3       7 UNK        -0.1927 
     47 C          29.1340   30.0874    6.9043 C.2       7 UNK         0.5013 
     48 O          29.5873   29.2627    7.6985 O.2       7 UNK        -0.5193 
     49 N          29.6322   31.3201    6.7620 N.am      8 UNK        -0.4253 
     50 CA         30.7648   31.8842    7.4987 C.3       8 UNK         0.0242 
     51 CB         30.6429   33.4197    7.4849 C.3       8 UNK        -0.2000 
     52 C          32.1213   31.3919    6.9530 C.2       8 UNK         0.4948 
     53 O          32.9815   32.2104    6.6243 O.2       8 UNK        -0.5275 
     54 N          32.2796   30.0649    6.8392 N.am      9 UNK        -0.4246 
     55 CA         33.4562   29.2869    6.4119 C.3       9 UNK         0.0261 
     56 CB         34.6193   29.4743    7.4053 C.3       9 UNK        -0.1959 
     57 C          33.9444   29.5048    4.9633 C.2       9 UNK         0.5033 
     58 O          34.5143   28.5791    4.3842 O.2       9 UNK        -0.5390 
     59 N          33.7479   30.7044    4.4095 N.am      10 UNK        -0.4215 
     60 CA         34.1139   31.0879    3.0480 C.3       10 UNK         0.0240 
     61 CB         34.0059   32.6171    2.9254 C.3       10 UNK        -0.1982 
     62 C          33.2346   30.4049    1.9883 C.2       10 UNK         0.4970 
     63 O          32.0771   30.0784    2.2577 O.2       10 UNK        -0.4916 
     64 N          33.7915   30.2652    0.7820 N.am      11 UNK        -0.4279 
     65 CA         33.1006   29.7622   -0.4171 C.3       11 UNK         0.1003 
     66 C          32.3998   30.8801   -1.2479 C.2       11 UNK         0.5709 
     67 N          32.3510   32.1248   -0.7861 N.am      11 UNK        -0.7358 
     68 O          31.8914   30.6215   -2.3356 O.2       11 UNK        -0.4999 
     69 C69        34.0482   28.8955   -1.2915 C.3       12 UNK        -0.0954 
     70 S70        34.6830   27.4419   -0.3903 S.3       12 UNK        -0.2268 
     71 C71        33.3175   26.2685   -0.6679 C.3       12 UNK         0.0203 
     72 H72        28.3947   24.0701    6.7723 H         1 UNK         0.0888 
     73 H73        29.9130   23.9513    5.8915 H         1 UNK         0.0888 
     74 H74        28.8273   25.3216    5.6057 H         1 UNK         0.0888 
     75 H75        29.8185   23.5215    3.5260 H         1 UNK         0.3017 
     76 H76        27.8922   21.5650    2.7901 H         1 UNK         0.0873 
     77 H77        29.9108   22.9904    0.9876 H         1 UNK         0.0745 
     78 H78        29.0829   21.5004    0.6195 H         1 UNK         0.0745 
     79 H79        32.3392   21.5022    0.4328 H         1 UNK         0.0705 
     80 H80        33.1936   21.3270    1.9460 H         1 UNK         0.0705 
     81 H81        33.0225   23.5750   -0.4544 H         1 UNK         0.1334 
     82 H82        32.7870   27.1752    1.8647 H         1 UNK         0.1417 
     83 H83        31.9686   23.3848    3.6939 H         1 UNK         0.1562 
     84 H84        32.8776   26.4836    4.6491 H         1 UNK         0.0748 
     85 H85        31.6049   25.3395    4.9562 H         1 UNK         0.0748 
     86 H86        28.5088   26.7077    3.3151 H         1 UNK         0.0940 
     87 H87        29.7340   25.6800    2.6608 H         1 UNK         0.0940 
     88 H88        30.5357   27.8326    1.3186 H         1 UNK         0.0703 
     89 H89        28.4602   25.9246    0.6235 H         1 UNK         0.3081 
     90 H90        29.0151   26.4657   -2.9173 H         1 UNK         0.0719 
     91 H91        30.7035   24.8531   -1.9828 H         1 UNK         0.0809 
     92 H92        29.4507   24.1315   -0.9826 H         1 UNK         0.0809 
     93 H93        29.3457   24.0328   -2.7377 H         1 UNK         0.0809 
     94 H94        27.1427   24.8034   -1.5202 H         1 UNK         0.2990 
     95 H95        24.4127   27.0497   -1.5953 H         1 UNK         0.0690 
     96 H96        23.3428   25.2872   -2.9878 H         1 UNK         0.0788 
     97 H97        24.9271   24.6621   -3.4447 H         1 UNK         0.0788 
     98 H98        24.4410   26.2745   -3.9383 H         1 UNK         0.0788 
     99 H99        24.2898   25.6804    0.0925 H         1 UNK         0.2993 
    100 H100       24.6176   24.1540    1.5594 H         1 UNK         0.0949 
    101 H101       22.9034   22.7963    0.3261 H         1 UNK         0.0767 
    102 H102       24.0798   21.5105    0.0943 H         1 UNK         0.0767 
    103 H103       23.5293   21.9286    1.7180 H         1 UNK         0.0767 
    104 H104       26.0045   21.7565    1.7188 H         1 UNK         0.3013 
    105 H105       30.3008   29.8622    2.1956 H         1 UNK         0.3121 
    106 H106       27.7176   31.2839    1.8842 H         1 UNK         0.0774 
    107 H107       29.0996   33.2908    2.2416 H         1 UNK         0.0815 
    108 H108       30.5003   32.3131    2.6561 H         1 UNK         0.0815 
    109 H109       29.8608   32.2942    1.0132 H         1 UNK         0.0815 
    110 H110       28.4065   29.1863    3.9945 H         1 UNK         0.2987 
    111 H111       27.8954   28.6008    6.0366 H         1 UNK         0.0949 
    112 H112       26.4237   29.9345    7.5010 H         1 UNK         0.0806 
    113 H113       25.8005   29.9306    5.8593 H         1 UNK         0.0806 
    114 H114       26.6269   31.3541    6.4899 H         1 UNK         0.0806 
    115 H115       29.2062   31.9045    6.0465 H         1 UNK         0.3010 
    116 H116       30.7029   31.5556    8.5384 H         1 UNK         0.0829 
    117 H117       29.6990   33.7467    7.9216 H         1 UNK         0.0813 
    118 H118       31.4428   33.8826    8.0644 H         1 UNK         0.0813 
    119 H119       30.6992   33.8188    6.4712 H         1 UNK         0.0813 
    120 H120       31.4746   29.5056    7.1080 H         1 UNK         0.3038 
    121 H121       33.1430   28.2434    6.4684 H         1 UNK         0.0769 
    122 H122       35.4609   28.8302    7.1465 H         1 UNK         0.0811 
    123 H123       34.3183   29.2200    8.4215 H         1 UNK         0.0811 
    124 H124       34.9872   30.5009    7.4106 H         1 UNK         0.0811 
    125 H125       33.3312   31.4183    5.0018 H         1 UNK         0.3204 
    126 H126       35.1524   30.7924    2.8839 H         1 UNK         0.0748 
    127 H127       34.3224   32.9593    1.9393 H         1 UNK         0.0771 
    128 H128       32.9827   32.9625    3.0806 H         1 UNK         0.0771 
    129 H129       34.6404   33.1182    3.6570 H         1 UNK         0.0771 
    130 H130       34.7419   30.5738    0.6400 H         1 UNK         0.2980 
    131 H131       32.2866   29.1124   -0.0922 H         1 UNK         0.0545 
    132 H132       31.8972   32.8348   -1.3388 H         1 UNK         0.3459 
    133 H133       32.7602   32.3602    0.1020 H         1 UNK         0.3459 
    134 H134       33.5440   28.5466   -2.1947 H         1 UNK         0.0616 
    135 H135       34.8996   29.4878   -1.6305 H         1 UNK         0.0616 
    136 H136       32.4222   26.8033   -0.9801 H         1 UNK         0.0634 
    137 H137       33.5890   25.6156   -1.4986 H         1 UNK         0.0634 
@<TRIPOS>BOND
     1    1    2 1    
     2    1   72 1    
     3    1   73 1    
     4    1   74 1    
     5    2    3 2    
     6    2    4 am   BACKBONE|DICT|INTERRES
     7    4    5 1    
     8    4   75 1    
     9    5    6 1    
    10    5   35 1    
    11    5   76 1    
    12    6    7 1    
    13    6   77 1    
    14    6   78 1    
    15    7    8 1    
    16    8    9 1    
    17    8   79 1    
    18    8   80 1    
    19    9   10 ar   
    20    9   14 ar   
    21   10   11 ar   
    22   10   81 1    
    23   11   12 ar   
    24   11   71 1    
    25   12   13 ar   
    26   12   82 1    
    27   13   14 ar   
    28   13   15 1    
    29   14   83 1    
    30   15   16 1    
    31   15   84 1    
    32   15   85 1    
    33   16   17 1    
    34   17   18 1    
    35   17   86 1    
    36   17   87 1    
    37   18   19 1    
    38   18   37 1    
    39   18   88 1    
    40   19   20 am   BACKBONE|DICT|INTERRES
    41   19   89 1    
    42   20   21 2    
    43   20   22 1    
    44   22   23 1    
    45   22   24 1    
    46   22   90 1    
    47   23   91 1    
    48   23   92 1    
    49   23   93 1    
    50   24   25 am   BACKBONE|DICT|INTERRES
    51   24   94 1    
    52   25   26 2    
    53   25   27 1    
    54   27   28 1    
    55   27   29 1    
    56   27   95 1    
    57   28   96 1    
    58   28   97 1    
    59   28   98 1    
    60   29   30 am   BACKBONE|DICT|INTERRES
    61   29   99 1    
    62   30   31 2    
    63   30   32 1    
    64   32   33 1    
    65   32   34 1    
    66   32  100 1    
    67   33  101 1    
    68   33  102 1    
    69   33  103 1    
    70   34   35 am   BACKBONE|DICT|INTERRES
    71   34  104 1    
    72   35   36 2    
    73   37   38 2    
    74   37   39 am   BACKBONE|DICT|INTERRES
    75   39   40 1    
    76   39  105 1    
    77   40   41 1    
    78   40   42 1    
    79   40  106 1    
    80   41  107 1    
    81   41  108 1    
    82   41  109 1    
    83   42   43 2    
    84   42   44 am   BACKBONE|DICT|INTERRES
    85   44   45 1    
    86   44  110 1    
    87   45   46 1    
    88   45   47 1    
    89   45  111 1    
    90   46  112 1    
    91   46  113 1    
    92   46  114 1    
    93   47   48 2    
    94   47   49 am   BACKBONE|DICT|INTERRES
    95   49   50 1    
    96   49  115 1    
    97   50   51 1    
    98   50   52 1    
    99   50  116 1    
   100   51  117 1    
   101   51  118 1    
   102   51  119 1    
   103   52   53 2    
   104   52   54 am   BACKBONE|DICT|INTERRES
   105   54   55 1    
   106   54  120 1    
   107   55   56 1    
   108   55   57 1    
   109   55  121 1    
   110   56  122 1    
   111   56  123 1    
   112   56  124 1    
   113   57   58 2    
   114   57   59 am   BACKBONE|DICT|INTERRES
   115   59   60 1    
   116   59  125 1    
   117   60   61 1    
   118   60   62 1    
   119   60  126 1    
   120   61  127 1    
   121   61  128 1    
   122   61  129 1    
   123   62   63 2    
   124   62   64 am   BACKBONE|DICT|INTERRES
   125   64   65 1    
   126   64  130 1    
   127   65   66 1    
   128   65   69 1    
   129   65  131 1    
   130   66   67 am   BACKBONE|DICT|INTERRES
   131   66   68 2    
   132   67  132 1    
   133   67  133 1    
   134   69   70 1    
   135   69  134 1    
   136   69  135 1    
   137   70   71 1    
   138   71  136 1    
   139   71  137 1    
@<TRIPOS>SUBSTRUCTURE
     1 UNK         1 GROUP             0       ****    0 ROOT    
