@<TRIPOS>MOLECULE
3R136
137   139    1
SMALL
USER_CHARGES


@<TRIPOS>ATOM
      1 CA         28.4823   19.3696   -3.5991 C.3       0 UNK        -0.1979 
      2 C          28.4016   20.8136   -3.1274 C.2       0 UNK         0.4864 
      3 O          28.1985   21.7157   -3.9428 O.2       0 UNK        -0.5359 
      4 N          28.5515   21.0450   -1.8165 N.am      1 UNK        -0.4318 
      5 CA         28.5166   22.3641   -1.1733 C.3       1 UNK         0.0824 
      6 C6         29.2686   22.3656    0.1829 C.3       12 UNK        -0.0944 
      7 S7         31.0394   21.9793   -0.0249 S.3       12 UNK        -0.2672 
      8 C8         31.7871   23.6419    0.1110 C.3       12 UNK         0.0333 
      9 C9         32.0142   24.1650    1.5329 C.ar      12 UNK        -0.0807 
     10 C10        32.7932   25.3159    1.6921 C.ar      12 UNK        -0.0894 
     11 C11        33.0684   25.8294    2.9625 C.ar      12 UNK        -0.0804 
     12 C12        32.5423   25.1933    4.0902 C.ar      12 UNK        -0.0824 
     13 C13        31.7473   24.0521    3.9515 C.ar      12 UNK        -0.0762 
     14 C14        31.4925   23.5407    2.6752 C.ar      12 UNK        -0.0782 
     15 C15        31.1698   23.3603    5.1790 C.3       12 UNK         0.0230 
     16 S16        29.3553   23.5073    5.2570 S.3       12 UNK        -0.2608 
     17 C17        29.1363   25.3013    5.5164 C.3       12 UNK        -0.0989 
     18 CA         28.8527   26.0658    4.1932 C.3       5 UNK         0.0716 
     19 N          27.7015   25.5514    3.4394 N.am      5 UNK        -0.4135 
     20 C          26.4163   25.5801    3.8198 C.2       4 UNK         0.5031 
     21 O          26.0179   26.0520    4.8866 O.2       4 UNK        -0.5229 
     22 CA         25.4161   24.9779    2.8144 C.3       4 UNK         0.0329 
     23 CB         23.9422   25.1689    3.2326 C.3       4 UNK        -0.2001 
     24 N          25.6374   25.4537    1.4419 N.am      4 UNK        -0.4303 
     25 C          25.5544   26.7194    0.9950 C.2       3 UNK         0.5044 
     26 O          25.3020   27.6832    1.7165 O.2       3 UNK        -0.5152 
     27 CA         25.8167   26.9785   -0.5042 C.3       3 UNK         0.0319 
     28 CB         27.1474   27.7268   -0.6923 C.3       3 UNK        -0.2001 
     29 N          25.8385   25.7667   -1.3262 N.am      3 UNK        -0.4354 
     30 C          24.7773   24.9958   -1.6056 C.2       2 UNK         0.4964 
     31 O          23.6216   25.2856   -1.2960 O.2       2 UNK        -0.5047 
     32 CA         25.0525   23.6569   -2.3189 C.3       2 UNK         0.0288 
     33 CB         24.7013   23.7612   -3.8120 C.3       2 UNK        -0.2113 
     34 N          26.4288   23.1586   -2.1861 N.am      2 UNK        -0.4145 
     35 C          27.0662   22.8762   -1.0403 C.2       1 UNK         0.5006 
     36 O          26.5576   23.0239    0.0735 O.2       1 UNK        -0.5103 
     37 C          28.7832   27.5967    4.3841 C.2       5 UNK         0.5055 
     38 O          29.0810   28.1062    5.4653 O.2       5 UNK        -0.5220 
     39 N          28.4077   28.3028    3.3120 N.am      6 UNK        -0.4450 
     40 CA         28.3868   29.7622    3.2222 C.3       6 UNK         0.0367 
     41 CB         26.9928   30.2928    3.6075 C.3       6 UNK        -0.1929 
     42 C          28.8361   30.2041    1.8201 C.2       6 UNK         0.5070 
     43 O          28.3178   31.1858    1.2874 O.2       6 UNK        -0.5237 
     44 N          29.7835   29.4573    1.2306 N.am      7 UNK        -0.4739 
     45 CA         30.3528   29.7239   -0.0963 C.3       7 UNK         0.0276 
     46 CB         31.1335   28.4850   -0.5667 C.3       7 UNK        -0.1927 
     47 C          31.2496   30.9760   -0.1300 C.2       7 UNK         0.5013 
     48 O          31.4048   31.5856   -1.1888 O.2       7 UNK        -0.5193 
     49 N          31.8058   31.3374    1.0289 N.am      8 UNK        -0.4253 
     50 CA         32.5926   32.5324    1.2944 C.3       8 UNK         0.0242 
     51 CB         34.0632   32.2810    0.9127 C.3       8 UNK        -0.2000 
     52 C          32.4564   32.8399    2.7894 C.2       8 UNK         0.4948 
     53 O          32.0577   31.9600    3.5582 O.2       8 UNK        -0.5275 
     54 N          32.8405   34.0579    3.1952 N.am      9 UNK        -0.4246 
     55 CA         32.8533   34.4984    4.5986 C.3       9 UNK         0.0261 
     56 CB         33.2454   35.9832    4.6666 C.3       9 UNK        -0.1959 
     57 C          33.7726   33.6549    5.5043 C.2       9 UNK         0.5033 
     58 O          33.4887   33.5097    6.6941 O.2       9 UNK        -0.5390 
     59 N          34.8278   33.0778    4.9122 N.am      10 UNK        -0.4215 
     60 CA         35.7533   32.1362    5.5437 C.3       10 UNK         0.0240 
     61 CB         36.9362   31.8892    4.5925 C.3       10 UNK        -0.1982 
     62 C          35.1118   30.7967    5.9564 C.2       10 UNK         0.4970 
     63 O          35.6831   30.1115    6.8058 O.2       10 UNK        -0.4916 
     64 N          33.9612   30.4374    5.3671 N.am      11 UNK        -0.4279 
     65 CA         33.2086   29.2206    5.7107 C.3       11 UNK         0.1003 
     66 C          32.4466   29.3048    7.0654 C.2       11 UNK         0.5709 
     67 N          32.2856   30.4775    7.6703 N.am      11 UNK        -0.7358 
     68 O          32.0166   28.2805    7.5897 O.2       11 UNK        -0.4999 
     69 C69        32.2606   28.7652    4.5688 C.3       12 UNK        -0.0954 
     70 S70        33.0709   28.6127    2.9419 S.3       12 UNK        -0.2268 
     71 C71        33.9743   27.0429    3.1111 C.3       12 UNK         0.0203 
     72 H72        28.6692   18.6814   -2.7749 H         1 UNK         0.0888 
     73 H73        27.5481   19.0791   -4.0789 H         1 UNK         0.0888 
     74 H74        29.2879   19.2570   -4.3240 H         1 UNK         0.0888 
     75 H75        28.7069   20.2658   -1.1927 H         1 UNK         0.3017 
     76 H76        29.0321   23.0734   -1.8252 H         1 UNK         0.0873 
     77 H77        28.8335   21.6339    0.8663 H         1 UNK         0.0745 
     78 H78        29.1740   23.3340    0.6782 H         1 UNK         0.0745 
     79 H79        32.7509   23.6049   -0.3991 H         1 UNK         0.0705 
     80 H80        31.1777   24.3578   -0.4425 H         1 UNK         0.0705 
     81 H81        33.2060   25.8072    0.8211 H         1 UNK         0.1334 
     82 H82        32.7568   25.5841    5.0756 H         1 UNK         0.1417 
     83 H83        30.8824   22.6532    2.5903 H         1 UNK         0.1562 
     84 H84        31.6052   23.7583    6.0970 H         1 UNK         0.0748 
     85 H85        31.4359   22.3027    5.1497 H         1 UNK         0.0748 
     86 H86        30.0281   25.6974    6.0064 H         1 UNK         0.0940 
     87 H87        28.3186   25.4478    6.2241 H         1 UNK         0.0940 
     88 H88        29.7134   25.9112    3.5421 H         1 UNK         0.0703 
     89 H89        27.9172   25.1181    2.5538 H         1 UNK         0.3081 
     90 H90        25.6128   23.9046    2.7981 H         1 UNK         0.0719 
     91 H91        23.2639   24.7104    2.5130 H         1 UNK         0.0809 
     92 H92        23.6773   26.2232    3.3188 H         1 UNK         0.0809 
     93 H93        23.7486   24.7060    4.2010 H         1 UNK         0.0809 
     94 H94        25.8767   24.7242    0.7760 H         1 UNK         0.2990 
     95 H95        25.0094   27.6177   -0.8679 H         1 UNK         0.0690 
     96 H96        27.3315   27.9556   -1.7422 H         1 UNK         0.0788 
     97 H97        27.9943   27.1498   -0.3196 H         1 UNK         0.0788 
     98 H98        27.1360   28.6772   -0.1576 H         1 UNK         0.0788 
     99 H99        26.7426   25.4572   -1.6498 H         1 UNK         0.2993 
    100 H100       24.3947   22.9147   -1.8618 H         1 UNK         0.0949 
    101 H101       23.6724   24.0968   -3.9505 H         1 UNK         0.0767 
    102 H102       25.3490   24.4701   -4.3294 H         1 UNK         0.0767 
    103 H103       24.7948   22.7957   -4.3099 H         1 UNK         0.0767 
    104 H104       26.9226   22.9413   -3.0477 H         1 UNK         0.3013 
    105 H105       28.1297   27.8091    2.4759 H         1 UNK         0.3121 
    106 H106       29.1163   30.1822    3.9181 H         1 UNK         0.0774 
    107 H107       26.9732   31.3832    3.6059 H         1 UNK         0.0815 
    108 H108       26.2271   29.9496    2.9112 H         1 UNK         0.0815 
    109 H109       26.7068   29.9656    4.6071 H         1 UNK         0.0815 
    110 H110       30.1867   28.6896    1.7485 H         1 UNK         0.2987 
    111 H111       29.5286   29.8958   -0.7923 H         1 UNK         0.0949 
    112 H112       31.9734   28.2611    0.0918 H         1 UNK         0.0806 
    113 H113       30.4957   27.6023   -0.6093 H         1 UNK         0.0806 
    114 H114       31.5386   28.6383   -1.5679 H         1 UNK         0.0806 
    115 H115       31.6000   30.7992    1.8626 H         1 UNK         0.3010 
    116 H116       32.1892   33.3706    0.7223 H         1 UNK         0.0829 
    117 H117       34.1609   32.0350   -0.1449 H         1 UNK         0.0813 
    118 H118       34.6774   33.1636    1.0944 H         1 UNK         0.0813 
    119 H119       34.4914   31.4571    1.4859 H         1 UNK         0.0813 
    120 H120       33.1547   34.7270    2.5062 H         1 UNK         0.3038 
    121 H121       31.8370   34.3944    4.9848 H         1 UNK         0.0769 
    122 H122       33.2397   36.3409    5.6973 H         1 UNK         0.0811 
    123 H123       32.5462   36.6051    4.1072 H         1 UNK         0.0811 
    124 H124       34.2454   36.1570    4.2673 H         1 UNK         0.0811 
    125 H125       34.9760   33.2663    3.9320 H         1 UNK         0.3204 
    126 H126       36.1346   32.6055    6.4531 H         1 UNK         0.0748 
    127 H127       37.6678   31.2176    5.0444 H         1 UNK         0.0771 
    128 H128       36.6123   31.4342    3.6553 H         1 UNK         0.0771 
    129 H129       37.4568   32.8172    4.3549 H         1 UNK         0.0771 
    130 H130       33.5169   31.0505    4.6931 H         1 UNK         0.2980 
    131 H131       33.9405   28.4232    5.8475 H         1 UNK         0.0545 
    132 H132       32.6494   31.3254    7.2592 H         1 UNK         0.3459 
    133 H133       31.7982   30.5133    8.5512 H         1 UNK         0.3459 
    134 H134       31.4421   29.4780    4.4606 H         1 UNK         0.0616 
    135 H135       31.7948   27.8114    4.8157 H         1 UNK         0.0616 
    136 H136       34.7497   27.0110    2.3443 H         1 UNK         0.0634 
    137 H137       34.5005   27.0156    4.0656 H         1 UNK         0.0634 
@<TRIPOS>BOND
     1    1    2 1    
     2    1   72 1    
     3    1   73 1    
     4    1   74 1    
     5    2    3 2    
     6    2    4 am   BACKBONE|DICT|INTERRES
     7    4    5 1    
     8    4   75 1    
     9    5    6 1    
    10    5   35 1    
    11    5   76 1    
    12    6    7 1    
    13    6   77 1    
    14    6   78 1    
    15    7    8 1    
    16    8    9 1    
    17    8   79 1    
    18    8   80 1    
    19    9   10 ar   
    20    9   14 ar   
    21   10   11 ar   
    22   10   81 1    
    23   11   12 ar   
    24   11   71 1    
    25   12   13 ar   
    26   12   82 1    
    27   13   14 ar   
    28   13   15 1    
    29   14   83 1    
    30   15   16 1    
    31   15   84 1    
    32   15   85 1    
    33   16   17 1    
    34   17   18 1    
    35   17   86 1    
    36   17   87 1    
    37   18   19 1    
    38   18   37 1    
    39   18   88 1    
    40   19   20 am   BACKBONE|DICT|INTERRES
    41   19   89 1    
    42   20   21 2    
    43   20   22 1    
    44   22   23 1    
    45   22   24 1    
    46   22   90 1    
    47   23   91 1    
    48   23   92 1    
    49   23   93 1    
    50   24   25 am   BACKBONE|DICT|INTERRES
    51   24   94 1    
    52   25   26 2    
    53   25   27 1    
    54   27   28 1    
    55   27   29 1    
    56   27   95 1    
    57   28   96 1    
    58   28   97 1    
    59   28   98 1    
    60   29   30 am   BACKBONE|DICT|INTERRES
    61   29   99 1    
    62   30   31 2    
    63   30   32 1    
    64   32   33 1    
    65   32   34 1    
    66   32  100 1    
    67   33  101 1    
    68   33  102 1    
    69   33  103 1    
    70   34   35 am   BACKBONE|DICT|INTERRES
    71   34  104 1    
    72   35   36 2    
    73   37   38 2    
    74   37   39 am   BACKBONE|DICT|INTERRES
    75   39   40 1    
    76   39  105 1    
    77   40   41 1    
    78   40   42 1    
    79   40  106 1    
    80   41  107 1    
    81   41  108 1    
    82   41  109 1    
    83   42   43 2    
    84   42   44 am   BACKBONE|DICT|INTERRES
    85   44   45 1    
    86   44  110 1    
    87   45   46 1    
    88   45   47 1    
    89   45  111 1    
    90   46  112 1    
    91   46  113 1    
    92   46  114 1    
    93   47   48 2    
    94   47   49 am   BACKBONE|DICT|INTERRES
    95   49   50 1    
    96   49  115 1    
    97   50   51 1    
    98   50   52 1    
    99   50  116 1    
   100   51  117 1    
   101   51  118 1    
   102   51  119 1    
   103   52   53 2    
   104   52   54 am   BACKBONE|DICT|INTERRES
   105   54   55 1    
   106   54  120 1    
   107   55   56 1    
   108   55   57 1    
   109   55  121 1    
   110   56  122 1    
   111   56  123 1    
   112   56  124 1    
   113   57   58 2    
   114   57   59 am   BACKBONE|DICT|INTERRES
   115   59   60 1    
   116   59  125 1    
   117   60   61 1    
   118   60   62 1    
   119   60  126 1    
   120   61  127 1    
   121   61  128 1    
   122   61  129 1    
   123   62   63 2    
   124   62   64 am   BACKBONE|DICT|INTERRES
   125   64   65 1    
   126   64  130 1    
   127   65   66 1    
   128   65   69 1    
   129   65  131 1    
   130   66   67 am   BACKBONE|DICT|INTERRES
   131   66   68 2    
   132   67  132 1    
   133   67  133 1    
   134   69   70 1    
   135   69  134 1    
   136   69  135 1    
   137   70   71 1    
   138   71  136 1    
   139   71  137 1    
@<TRIPOS>SUBSTRUCTURE
     1 UNK         1 GROUP             0       ****    0 ROOT    
