@<TRIPOS>MOLECULE
3R136
137   139    1
SMALL
USER_CHARGES


@<TRIPOS>ATOM
      1 CA         26.4312   23.4690   -1.3799 C.3       0 UNK        -0.1979 
      2 C          27.2172   23.7901   -0.1190 C.2       0 UNK         0.4864 
      3 O          27.2307   24.9469    0.3131 O.2       0 UNK        -0.5359 
      4 N          27.8830   22.7813    0.4560 N.am      1 UNK        -0.4318 
      5 CA         28.6643   22.8654    1.6931 C.3       1 UNK         0.0824 
      6 C6         29.5015   21.5810    1.9414 C.3       12 UNK        -0.0944 
      7 S7         30.4873   21.0470    0.5005 S.3       12 UNK        -0.2672 
      8 C8         32.1989   21.2479    1.0917 C.3       12 UNK         0.0333 
      9 C9         32.6805   22.6906    1.0176 C.ar      12 UNK        -0.0807 
     10 C10        33.2016   23.3243    2.1499 C.ar      12 UNK        -0.0894 
     11 C11        33.7090   24.6246    2.0631 C.ar      12 UNK        -0.0804 
     12 C12        33.6669   25.2987    0.8389 C.ar      12 UNK        -0.0824 
     13 C13        33.1208   24.6912   -0.2947 C.ar      12 UNK        -0.0762 
     14 C14        32.6542   23.3753   -0.2014 C.ar      12 UNK        -0.0782 
     15 C15        33.0747   25.4714   -1.6071 C.3       12 UNK         0.0230 
     16 S16        31.6322   25.1073   -2.6680 S.3       12 UNK        -0.2608 
     17 C17        30.2204   25.4867   -1.5759 C.3       12 UNK        -0.0989 
     18 CA         29.6813   26.9238   -1.7823 C.3       5 UNK         0.0716 
     19 N          28.2553   27.0158   -1.4773 N.am      5 UNK        -0.4135 
     20 C          27.4263   27.9239   -2.0108 C.2       4 UNK         0.5031 
     21 O          27.7621   28.7259   -2.8833 O.2       4 UNK        -0.5229 
     22 CA         25.9769   27.9448   -1.5021 C.3       4 UNK         0.0329 
     23 CB         25.0852   27.0474   -2.3752 C.3       4 UNK        -0.2001 
     24 N          25.8797   27.5166   -0.1051 N.am      4 UNK        -0.4303 
     25 C          25.8336   28.3560    0.9385 C.2       3 UNK         0.5044 
     26 O          25.8431   29.5830    0.8399 O.2       3 UNK        -0.5152 
     27 CA         25.7681   27.7200    2.3305 C.3       3 UNK         0.0319 
     28 CB         24.3877   27.0954    2.5964 C.3       3 UNK        -0.2001 
     29 N          26.8097   26.7064    2.4861 N.am      3 UNK        -0.4354 
     30 C          27.5990   26.5777    3.5562 C.2       2 UNK         0.4964 
     31 O          27.5241   27.2878    4.5600 O.2       2 UNK        -0.5047 
     32 CA         28.5783   25.4002    3.5169 C.3       2 UNK         0.0288 
     33 CB         29.6072   25.4471    4.6607 C.3       2 UNK        -0.2113 
     34 N          27.7749   24.1882    3.6575 N.am      2 UNK        -0.4145 
     35 C          27.7019   23.0978    2.8843 C.2       1 UNK         0.5006 
     36 O          26.8526   22.2345    3.1112 O.2       1 UNK        -0.5103 
     37 C          30.4291   27.9528   -0.9168 C.2       5 UNK         0.5055 
     38 O          30.4075   27.8285    0.3095 O.2       5 UNK        -0.5220 
     39 N          31.0594   28.9390   -1.5733 N.am      6 UNK        -0.4450 
     40 CA         31.7538   30.0895   -0.9800 C.3       6 UNK         0.0367 
     41 CB         33.0308   29.6330   -0.2374 C.3       6 UNK        -0.1929 
     42 C          30.8027   30.9587   -0.1268 C.2       6 UNK         0.5070 
     43 O          29.6340   31.1107   -0.4894 O.2       6 UNK        -0.5237 
     44 N          31.3117   31.5398    0.9666 N.am      7 UNK        -0.4739 
     45 CA         30.5098   32.2392    1.9723 C.3       7 UNK         0.0276 
     46 CB         31.4258   33.1593    2.7943 C.3       7 UNK        -0.1927 
     47 C          29.7952   31.2294    2.8856 C.2       7 UNK         0.5013 
     48 O          30.3318   30.1485    3.1349 O.2       7 UNK        -0.5193 
     49 N          28.6112   31.6033    3.3865 N.am      8 UNK        -0.4253 
     50 CA         27.8127   30.7697    4.2862 C.3       8 UNK         0.0242 
     51 CB         26.4075   31.3719    4.4411 C.3       8 UNK        -0.2000 
     52 C          28.4917   30.5972    5.6546 C.2       8 UNK         0.4948 
     53 O          28.9596   31.5849    6.2284 O.2       8 UNK        -0.5275 
     54 N          28.5247   29.3506    6.1442 N.am      9 UNK        -0.4246 
     55 CA         29.1500   28.8579    7.3782 C.3       9 UNK         0.0261 
     56 CB         28.5062   29.4802    8.6333 C.3       9 UNK        -0.1959 
     57 C          30.6819   28.9998    7.3936 C.2       9 UNK         0.5033 
     58 O          31.3847   27.9934    7.4927 O.2       9 UNK        -0.5390 
     59 N          31.1787   30.2352    7.2734 N.am      10 UNK        -0.4215 
     60 CA         32.5971   30.5884    7.2150 C.3       10 UNK         0.0240 
     61 CB         32.7749   32.0115    7.7772 C.3       10 UNK        -0.1982 
     62 C          33.1362   30.4428    5.7800 C.2       10 UNK         0.4970 
     63 O          33.6147   31.4179    5.1988 O.2       10 UNK        -0.4916 
     64 N          33.0258   29.2298    5.2277 N.am      11 UNK        -0.4279 
     65 CA         33.3949   28.8938    3.8449 C.3       11 UNK         0.1003 
     66 C          34.9188   28.8940    3.5280 C.2       11 UNK         0.5709 
     67 N          35.8061   28.9529    4.5140 N.am      11 UNK        -0.7358 
     68 O          35.3011   28.8473    2.3616 O.2       11 UNK        -0.4999 
     69 C69        32.6920   27.5943    3.3745 C.3       12 UNK        -0.0954 
     70 S70        33.1262   26.1097    4.3488 S.3       12 UNK        -0.2268 
     71 C71        34.3457   25.2829    3.2795 C.3       12 UNK         0.0203 
     72 H72        25.3868   23.7516   -1.2527 H         1 UNK         0.0888 
     73 H73        26.4657   22.4068   -1.6211 H         1 UNK         0.0888 
     74 H74        26.8391   24.0205   -2.2263 H         1 UNK         0.0888 
     75 H75        27.8334   21.8585    0.0492 H         1 UNK         0.3017 
     76 H76        29.3729   23.6815    1.5733 H         1 UNK         0.0873 
     77 H77        28.8563   20.7398    2.2034 H         1 UNK         0.0745 
     78 H78        30.1609   21.7293    2.7986 H         1 UNK         0.0745 
     79 H79        32.2859   20.8499    2.1039 H         1 UNK         0.0705 
     80 H80        32.8524   20.6361    0.4685 H         1 UNK         0.0705 
     81 H81        33.2398   22.7985    3.0943 H         1 UNK         0.1334 
     82 H82        34.0679   26.3006    0.7660 H         1 UNK         0.1417 
     83 H83        32.2598   22.8787   -1.0774 H         1 UNK         0.1562 
     84 H84        33.9827   25.2534   -2.1704 H         1 UNK         0.0748 
     85 H85        33.0876   26.5437   -1.4075 H         1 UNK         0.0748 
     86 H86        30.4561   25.2791   -0.5301 H         1 UNK         0.0940 
     87 H87        29.4482   24.7643   -1.8423 H         1 UNK         0.0940 
     88 H88        29.8111   27.1827   -2.8359 H         1 UNK         0.0703 
     89 H89        27.9143   26.4007   -0.7461 H         1 UNK         0.3081 
     90 H90        25.6107   28.9691   -1.6017 H         1 UNK         0.0719 
     91 H91        25.4018   26.0059   -2.3459 H         1 UNK         0.0809 
     92 H92        24.0445   27.0911   -2.0537 H         1 UNK         0.0809 
     93 H93        25.1148   27.3667   -3.4179 H         1 UNK         0.0809 
     94 H94        25.9027   26.5189    0.0671 H         1 UNK         0.2990 
     95 H95        25.9145   28.5239    3.0538 H         1 UNK         0.0690 
     96 H96        24.3134   26.7301    3.6209 H         1 UNK         0.0788 
     97 H97        24.1838   26.2576    1.9286 H         1 UNK         0.0788 
     98 H98        23.5929   27.8293    2.4558 H         1 UNK         0.0788 
     99 H99        26.9492   26.0645    1.7074 H         1 UNK         0.2993 
    100 H100       29.1045   25.4746    2.5665 H         1 UNK         0.0949 
    101 H101       30.3561   24.6628    4.5491 H         1 UNK         0.0767 
    102 H102       30.1322   26.4020    4.6768 H         1 UNK         0.0767 
    103 H103       29.1370   25.3245    5.6372 H         1 UNK         0.0767 
    104 H104       27.0941   24.2484    4.4014 H         1 UNK         0.3013 
    105 H105       30.9639   28.9692   -2.5790 H         1 UNK         0.3121 
    106 H106       32.0659   30.7183   -1.8151 H         1 UNK         0.0774 
    107 H107       33.6440   28.9880   -0.8663 H         1 UNK         0.0815 
    108 H108       32.7932   29.0792    0.6702 H         1 UNK         0.0815 
    109 H109       33.6564   30.4804    0.0451 H         1 UNK         0.0815 
    110 H110       32.2685   31.3393    1.2159 H         1 UNK         0.2987 
    111 H111       29.7599   32.8523    1.4668 H         1 UNK         0.0949 
    112 H112       32.2102   32.5968    3.3004 H         1 UNK         0.0806 
    113 H113       31.9042   33.9095    2.1645 H         1 UNK         0.0806 
    114 H114       30.8616   33.6915    3.5615 H         1 UNK         0.0806 
    115 H115       28.2508   32.5225    3.1763 H         1 UNK         0.3010 
    116 H116       27.7165   29.7912    3.8145 H         1 UNK         0.0829 
    117 H117       25.8993   31.4448    3.4791 H         1 UNK         0.0813 
    118 H118       25.7874   30.7487    5.0870 H         1 UNK         0.0813 
    119 H119       26.4416   32.3684    4.8835 H         1 UNK         0.0813 
    120 H120       28.1264   28.6127    5.5607 H         1 UNK         0.3038 
    121 H121       28.9369   27.7877    7.4017 H         1 UNK         0.0769 
    122 H122       28.6581   30.5585    8.6861 H         1 UNK         0.0811 
    123 H123       28.9311   29.0493    9.5409 H         1 UNK         0.0811 
    124 H124       27.4326   29.2935    8.6587 H         1 UNK         0.0811 
    125 H125       30.5078   30.9761    7.0766 H         1 UNK         0.3204 
    126 H126       33.1658   29.9049    7.8492 H         1 UNK         0.0748 
    127 H127       32.4228   32.0770    8.8069 H         1 UNK         0.0771 
    128 H128       33.8256   32.3049    7.7761 H         1 UNK         0.0771 
    129 H129       32.2274   32.7492    7.1887 H         1 UNK         0.0771 
    130 H130       32.6211   28.4814    5.7779 H         1 UNK         0.2980 
    131 H131       32.9911   29.6963    3.2252 H         1 UNK         0.0545 
    132 H132       36.7892   28.9581    4.2936 H         1 UNK         0.3459 
    133 H133       35.5017   28.9892    5.4730 H         1 UNK         0.3459 
    134 H134       31.6123   27.7296    3.4436 H         1 UNK         0.0616 
    135 H135       32.8778   27.4201    2.3175 H         1 UNK         0.0616 
    136 H136       34.8647   24.5270    3.8705 H         1 UNK         0.0634 
    137 H137       35.1101   25.9968    2.9710 H         1 UNK         0.0634 
@<TRIPOS>BOND
     1    1    2 1    
     2    1   72 1    
     3    1   73 1    
     4    1   74 1    
     5    2    3 2    
     6    2    4 am   BACKBONE|DICT|INTERRES
     7    4    5 1    
     8    4   75 1    
     9    5    6 1    
    10    5   35 1    
    11    5   76 1    
    12    6    7 1    
    13    6   77 1    
    14    6   78 1    
    15    7    8 1    
    16    8    9 1    
    17    8   79 1    
    18    8   80 1    
    19    9   10 ar   
    20    9   14 ar   
    21   10   11 ar   
    22   10   81 1    
    23   11   12 ar   
    24   11   71 1    
    25   12   13 ar   
    26   12   82 1    
    27   13   14 ar   
    28   13   15 1    
    29   14   83 1    
    30   15   16 1    
    31   15   84 1    
    32   15   85 1    
    33   16   17 1    
    34   17   18 1    
    35   17   86 1    
    36   17   87 1    
    37   18   19 1    
    38   18   37 1    
    39   18   88 1    
    40   19   20 am   BACKBONE|DICT|INTERRES
    41   19   89 1    
    42   20   21 2    
    43   20   22 1    
    44   22   23 1    
    45   22   24 1    
    46   22   90 1    
    47   23   91 1    
    48   23   92 1    
    49   23   93 1    
    50   24   25 am   BACKBONE|DICT|INTERRES
    51   24   94 1    
    52   25   26 2    
    53   25   27 1    
    54   27   28 1    
    55   27   29 1    
    56   27   95 1    
    57   28   96 1    
    58   28   97 1    
    59   28   98 1    
    60   29   30 am   BACKBONE|DICT|INTERRES
    61   29   99 1    
    62   30   31 2    
    63   30   32 1    
    64   32   33 1    
    65   32   34 1    
    66   32  100 1    
    67   33  101 1    
    68   33  102 1    
    69   33  103 1    
    70   34   35 am   BACKBONE|DICT|INTERRES
    71   34  104 1    
    72   35   36 2    
    73   37   38 2    
    74   37   39 am   BACKBONE|DICT|INTERRES
    75   39   40 1    
    76   39  105 1    
    77   40   41 1    
    78   40   42 1    
    79   40  106 1    
    80   41  107 1    
    81   41  108 1    
    82   41  109 1    
    83   42   43 2    
    84   42   44 am   BACKBONE|DICT|INTERRES
    85   44   45 1    
    86   44  110 1    
    87   45   46 1    
    88   45   47 1    
    89   45  111 1    
    90   46  112 1    
    91   46  113 1    
    92   46  114 1    
    93   47   48 2    
    94   47   49 am   BACKBONE|DICT|INTERRES
    95   49   50 1    
    96   49  115 1    
    97   50   51 1    
    98   50   52 1    
    99   50  116 1    
   100   51  117 1    
   101   51  118 1    
   102   51  119 1    
   103   52   53 2    
   104   52   54 am   BACKBONE|DICT|INTERRES
   105   54   55 1    
   106   54  120 1    
   107   55   56 1    
   108   55   57 1    
   109   55  121 1    
   110   56  122 1    
   111   56  123 1    
   112   56  124 1    
   113   57   58 2    
   114   57   59 am   BACKBONE|DICT|INTERRES
   115   59   60 1    
   116   59  125 1    
   117   60   61 1    
   118   60   62 1    
   119   60  126 1    
   120   61  127 1    
   121   61  128 1    
   122   61  129 1    
   123   62   63 2    
   124   62   64 am   BACKBONE|DICT|INTERRES
   125   64   65 1    
   126   64  130 1    
   127   65   66 1    
   128   65   69 1    
   129   65  131 1    
   130   66   67 am   BACKBONE|DICT|INTERRES
   131   66   68 2    
   132   67  132 1    
   133   67  133 1    
   134   69   70 1    
   135   69  134 1    
   136   69  135 1    
   137   70   71 1    
   138   71  136 1    
   139   71  137 1    
@<TRIPOS>SUBSTRUCTURE
     1 UNK         1 GROUP             0       ****    0 ROOT    
