@<TRIPOS>MOLECULE
3R136
137   139    1
SMALL
USER_CHARGES


@<TRIPOS>ATOM
      1 CA         30.3254   22.4112    5.4749 C.3       0 UNK        -0.1979 
      2 C          29.2814   22.9792    4.5252 C.2       0 UNK         0.4864 
      3 O          28.3247   23.6128    4.9703 O.2       0 UNK        -0.5359 
      4 N          29.4681   22.7750    3.2144 N.am      1 UNK        -0.4318 
      5 CA         28.5610   23.1992    2.1364 C.3       1 UNK         0.0824 
      6 C6         28.7358   22.3746    0.8199 C.3       12 UNK        -0.0944 
      7 S7         29.4071   20.6787    1.0349 S.3       12 UNK        -0.2672 
      8 C8         31.0136   20.7224    0.1528 C.3       12 UNK         0.0333 
      9 C9         31.7902   22.0135    0.3849 C.ar      12 UNK        -0.0807 
     10 C10        32.2844   22.3276    1.6534 C.ar      12 UNK        -0.0894 
     11 C11        32.8767   23.5706    1.8950 C.ar      12 UNK        -0.0804 
     12 C12        33.0024   24.4873    0.8438 C.ar      12 UNK        -0.0824 
     13 C13        32.5642   24.1647   -0.4448 C.ar      12 UNK        -0.0762 
     14 C14        31.9667   22.9191   -0.6660 C.ar      12 UNK        -0.0782 
     15 C15        32.7518   25.1674   -1.5845 C.3       12 UNK         0.0230 
     16 S16        31.3224   25.2857   -2.7172 S.3       12 UNK        -0.2608 
     17 C17        30.0044   25.7834   -1.5633 C.3       12 UNK        -0.0989 
     18 CA         28.9745   26.7729   -2.1609 C.3       5 UNK         0.0716 
     19 N          27.7660   26.8034   -1.3364 N.am      5 UNK        -0.4135 
     20 C          26.5913   27.3477   -1.6805 C.2       4 UNK         0.5031 
     21 O          26.3969   27.9652   -2.7274 O.2       4 UNK        -0.5229 
     22 CA         25.4297   27.1522   -0.6941 C.3       4 UNK         0.0329 
     23 CB         24.7944   25.7648   -0.8853 C.3       4 UNK        -0.2001 
     24 N          25.8856   27.2857    0.6903 N.am      4 UNK        -0.4303 
     25 C          25.6708   28.3577    1.4639 C.2       3 UNK         0.5044 
     26 O          24.9762   29.3171    1.1291 O.2       3 UNK        -0.5152 
     27 CA         26.3543   28.3814    2.8444 C.3       3 UNK         0.0319 
     28 CB         25.3813   27.9068    3.9348 C.3       3 UNK        -0.2001 
     29 N          27.5842   27.5879    2.9200 N.am      3 UNK        -0.4354 
     30 C          28.6989   27.8312    2.2176 C.2       2 UNK         0.4964 
     31 O          28.8178   28.7502    1.4070 O.2       2 UNK        -0.5047 
     32 CA         29.8723   26.8595    2.4058 C.3       2 UNK         0.0288 
     33 CB         30.7249   27.3013    3.6046 C.3       2 UNK        -0.2113 
     34 N          29.5104   25.4457    2.5648 N.am      2 UNK        -0.4145 
     35 C          28.6407   24.7179    1.8429 C.2       1 UNK         0.5006 
     36 O          27.9299   25.1937    0.9546 O.2       1 UNK        -0.5103 
     37 C          29.5796   28.1726   -2.3950 C.2       5 UNK         0.5055 
     38 O          29.9100   28.5025   -3.5357 O.2       5 UNK        -0.5220 
     39 N          29.7213   28.9602   -1.3207 N.am      6 UNK        -0.4450 
     40 CA         30.3823   30.2691   -1.3329 C.3       6 UNK         0.0367 
     41 CB         31.6468   30.1761   -0.4597 C.3       6 UNK        -0.1929 
     42 C          29.4762   31.4050   -0.8307 C.2       6 UNK         0.5070 
     43 O          29.8552   32.5678   -0.9729 O.2       6 UNK        -0.5237 
     44 N          28.3297   31.0590   -0.2243 N.am      7 UNK        -0.4739 
     45 CA         27.4444   31.9288    0.5620 C.3       7 UNK         0.0276 
     46 CB         26.7864   33.0129   -0.3183 C.3       7 UNK        -0.1927 
     47 C          28.1569   32.4954    1.8078 C.2       7 UNK         0.5013 
     48 O          27.9422   33.6544    2.1687 O.2       7 UNK        -0.5193 
     49 N          29.0081   31.6659    2.4260 N.am      8 UNK        -0.4253 
     50 CA         29.8368   32.0070    3.5805 C.3       8 UNK         0.0242 
     51 CB         31.2991   31.6624    3.2516 C.3       8 UNK        -0.2000 
     52 C          29.3669   31.2318    4.8172 C.2       8 UNK         0.4948 
     53 O          28.7810   30.1562    4.6871 O.2       8 UNK        -0.5275 
     54 N          29.6574   31.7828    6.0021 N.am      9 UNK        -0.4246 
     55 CA         29.2879   31.2043    7.2988 C.3       9 UNK         0.0261 
     56 CB         29.3474   32.3058    8.3709 C.3       9 UNK        -0.1959 
     57 C          30.1517   30.0001    7.7213 C.2       9 UNK         0.5033 
     58 O          29.7413   29.2578    8.6151 O.2       9 UNK        -0.5390 
     59 N          31.3249   29.8312    7.1016 N.am      10 UNK        -0.4215 
     60 CA         32.2805   28.7586    7.3596 C.3       10 UNK         0.0240 
     61 CB         33.1890   29.1422    8.5429 C.3       10 UNK        -0.1982 
     62 C          33.1000   28.5112    6.0887 C.2       10 UNK         0.4970 
     63 O          33.1288   29.3716    5.2044 O.2       10 UNK        -0.4916 
     64 N          33.7447   27.3406    6.0268 N.am      11 UNK        -0.4279 
     65 CA         34.6240   26.9222    4.9260 C.3       11 UNK         0.1003 
     66 C          35.9125   27.7852    4.8081 C.2       11 UNK         0.5709 
     67 N          36.4553   27.9296    3.6071 N.am      11 UNK        -0.7358 
     68 O          36.4424   28.2894    5.7970 O.2       11 UNK        -0.4999 
     69 C69        34.9499   25.4042    5.0247 C.3       12 UNK        -0.0954 
     70 S70        35.0033   24.6096    3.3852 S.3       12 UNK        -0.2268 
     71 C71        33.3115   23.9408    3.3072 C.3       12 UNK         0.0203 
     72 H72        30.8382   23.2189    5.9966 H         1 UNK         0.0888 
     73 H73        29.8474   21.7744    6.2188 H         1 UNK         0.0888 
     74 H74        31.0725   21.8148    4.9516 H         1 UNK         0.0888 
     75 H75        30.2540   22.2253    2.8983 H         1 UNK         0.3017 
     76 H76        27.5451   23.0180    2.4940 H         1 UNK         0.0873 
     77 H77        29.3493   22.9055    0.0937 H         1 UNK         0.0745 
     78 H78        27.7648   22.2816    0.3305 H         1 UNK         0.0745 
     79 H79        30.8255   20.5749   -0.9118 H         1 UNK         0.0705 
     80 H80        31.6183   19.8735    0.4746 H         1 UNK         0.0705 
     81 H81        32.1685   21.6165    2.4598 H         1 UNK         0.1334 
     82 H82        33.4509   25.4533    1.0312 H         1 UNK         0.1417 
     83 H83        31.6056   22.6675   -1.6538 H         1 UNK         0.1562 
     84 H84        33.6303   24.8758   -2.1613 H         1 UNK         0.0748 
     85 H85        32.9599   26.1632   -1.1894 H         1 UNK         0.0748 
     86 H86        30.4444   26.1867   -0.6515 H         1 UNK         0.0940 
     87 H87        29.4995   24.8632   -1.2679 H         1 UNK         0.0940 
     88 H88        28.6703   26.3875   -3.1367 H         1 UNK         0.0703 
     89 H89        27.8104   26.2699   -0.4712 H         1 UNK         0.3081 
     90 H90        24.6707   27.9039   -0.9214 H         1 UNK         0.0719 
     91 H91        23.9310   25.6340   -0.2329 H         1 UNK         0.0809 
     92 H92        24.4482   25.6317   -1.9112 H         1 UNK         0.0809 
     93 H93        25.4997   24.9606   -0.6706 H         1 UNK         0.0809 
     94 H94        26.4846   26.5470    1.0442 H         1 UNK         0.2990 
     95 H95        26.6214   29.4193    3.0544 H         1 UNK         0.0690 
     96 H96        24.4627   28.4953    3.9219 H         1 UNK         0.0788 
     97 H97        25.8184   28.0144    4.9279 H         1 UNK         0.0788 
     98 H98        25.1018   26.8611    3.7998 H         1 UNK         0.0788 
     99 H99        27.5850   26.8078    3.5608 H         1 UNK         0.2993 
    100 H100       30.4941   26.9329    1.5133 H         1 UNK         0.0949 
    101 H101       30.1985   27.1639    4.5502 H         1 UNK         0.0767 
    102 H102       31.6611   26.7496    3.6542 H         1 UNK         0.0767 
    103 H103       30.9848   28.3576    3.5333 H         1 UNK         0.0767 
    104 H104       30.0161   24.9440    3.2786 H         1 UNK         0.3013 
    105 H105       29.3984   28.6355   -0.4140 H         1 UNK         0.3121 
    106 H106       30.6868   30.5409   -2.3457 H         1 UNK         0.0774 
    107 H107       31.4056   29.9115    0.5705 H         1 UNK         0.0815 
    108 H108       32.1805   31.1272   -0.4363 H         1 UNK         0.0815 
    109 H109       32.3387   29.4269   -0.8446 H         1 UNK         0.0815 
    110 H110       28.1508   30.0694   -0.1170 H         1 UNK         0.2987 
    111 H111       26.6463   31.2931    0.9432 H         1 UNK         0.0949 
    112 H112       27.5106   33.7461   -0.6738 H         1 UNK         0.0806 
    113 H113       26.2971   32.5737   -1.1875 H         1 UNK         0.0806 
    114 H114       26.0245   33.5571    0.2409 H         1 UNK         0.0806 
    115 H115       29.0526   30.7008    2.1162 H         1 UNK         0.3010 
    116 H116       29.7700   33.0758    3.7948 H         1 UNK         0.0829 
    117 H117       31.6458   32.2117    2.3760 H         1 UNK         0.0813 
    118 H118       31.9630   31.9197    4.0777 H         1 UNK         0.0813 
    119 H119       31.4306   30.5996    3.0492 H         1 UNK         0.0813 
    120 H120       30.1488   32.6655    6.0248 H         1 UNK         0.3038 
    121 H121       28.2562   30.8514    7.2330 H         1 UNK         0.0769 
    122 H122       30.3553   32.7077    8.4825 H         1 UNK         0.0811 
    123 H123       29.0417   31.9202    9.3446 H         1 UNK         0.0811 
    124 H124       28.6791   33.1326    8.1294 H         1 UNK         0.0811 
    125 H125       31.5754   30.4357    6.3295 H         1 UNK         0.3204 
    126 H126       31.7360   27.8415    7.5955 H         1 UNK         0.0748 
    127 H127       33.9141   28.3561    8.7569 H         1 UNK         0.0771 
    128 H128       33.7486   30.0561    8.3390 H         1 UNK         0.0771 
    129 H129       32.6098   29.3015    9.4528 H         1 UNK         0.0771 
    130 H130       33.6981   26.7157    6.8174 H         1 UNK         0.2980 
    131 H131       34.0446   27.0950    4.0167 H         1 UNK         0.0545 
    132 H132       37.2987   28.4730    3.5117 H         1 UNK         0.3459 
    133 H133       36.0471   27.4887    2.7978 H         1 UNK         0.3459 
    134 H134       35.8985   25.2267    5.5354 H         1 UNK         0.0616 
    135 H135       34.2026   24.8815    5.6242 H         1 UNK         0.0616 
    136 H136       32.6104   24.6762    3.6990 H         1 UNK         0.0634 
    137 H137       33.2550   23.0767    3.9709 H         1 UNK         0.0634 
@<TRIPOS>BOND
     1    1    2 1    
     2    1   72 1    
     3    1   73 1    
     4    1   74 1    
     5    2    3 2    
     6    2    4 am   BACKBONE|DICT|INTERRES
     7    4    5 1    
     8    4   75 1    
     9    5    6 1    
    10    5   35 1    
    11    5   76 1    
    12    6    7 1    
    13    6   77 1    
    14    6   78 1    
    15    7    8 1    
    16    8    9 1    
    17    8   79 1    
    18    8   80 1    
    19    9   10 ar   
    20    9   14 ar   
    21   10   11 ar   
    22   10   81 1    
    23   11   12 ar   
    24   11   71 1    
    25   12   13 ar   
    26   12   82 1    
    27   13   14 ar   
    28   13   15 1    
    29   14   83 1    
    30   15   16 1    
    31   15   84 1    
    32   15   85 1    
    33   16   17 1    
    34   17   18 1    
    35   17   86 1    
    36   17   87 1    
    37   18   19 1    
    38   18   37 1    
    39   18   88 1    
    40   19   20 am   BACKBONE|DICT|INTERRES
    41   19   89 1    
    42   20   21 2    
    43   20   22 1    
    44   22   23 1    
    45   22   24 1    
    46   22   90 1    
    47   23   91 1    
    48   23   92 1    
    49   23   93 1    
    50   24   25 am   BACKBONE|DICT|INTERRES
    51   24   94 1    
    52   25   26 2    
    53   25   27 1    
    54   27   28 1    
    55   27   29 1    
    56   27   95 1    
    57   28   96 1    
    58   28   97 1    
    59   28   98 1    
    60   29   30 am   BACKBONE|DICT|INTERRES
    61   29   99 1    
    62   30   31 2    
    63   30   32 1    
    64   32   33 1    
    65   32   34 1    
    66   32  100 1    
    67   33  101 1    
    68   33  102 1    
    69   33  103 1    
    70   34   35 am   BACKBONE|DICT|INTERRES
    71   34  104 1    
    72   35   36 2    
    73   37   38 2    
    74   37   39 am   BACKBONE|DICT|INTERRES
    75   39   40 1    
    76   39  105 1    
    77   40   41 1    
    78   40   42 1    
    79   40  106 1    
    80   41  107 1    
    81   41  108 1    
    82   41  109 1    
    83   42   43 2    
    84   42   44 am   BACKBONE|DICT|INTERRES
    85   44   45 1    
    86   44  110 1    
    87   45   46 1    
    88   45   47 1    
    89   45  111 1    
    90   46  112 1    
    91   46  113 1    
    92   46  114 1    
    93   47   48 2    
    94   47   49 am   BACKBONE|DICT|INTERRES
    95   49   50 1    
    96   49  115 1    
    97   50   51 1    
    98   50   52 1    
    99   50  116 1    
   100   51  117 1    
   101   51  118 1    
   102   51  119 1    
   103   52   53 2    
   104   52   54 am   BACKBONE|DICT|INTERRES
   105   54   55 1    
   106   54  120 1    
   107   55   56 1    
   108   55   57 1    
   109   55  121 1    
   110   56  122 1    
   111   56  123 1    
   112   56  124 1    
   113   57   58 2    
   114   57   59 am   BACKBONE|DICT|INTERRES
   115   59   60 1    
   116   59  125 1    
   117   60   61 1    
   118   60   62 1    
   119   60  126 1    
   120   61  127 1    
   121   61  128 1    
   122   61  129 1    
   123   62   63 2    
   124   62   64 am   BACKBONE|DICT|INTERRES
   125   64   65 1    
   126   64  130 1    
   127   65   66 1    
   128   65   69 1    
   129   65  131 1    
   130   66   67 am   BACKBONE|DICT|INTERRES
   131   66   68 2    
   132   67  132 1    
   133   67  133 1    
   134   69   70 1    
   135   69  134 1    
   136   69  135 1    
   137   70   71 1    
   138   71  136 1    
   139   71  137 1    
@<TRIPOS>SUBSTRUCTURE
     1 UNK         1 GROUP             0       ****    0 ROOT    
