@<TRIPOS>MOLECULE
3R136
137   139    1
SMALL
USER_CHARGES


@<TRIPOS>ATOM
      1 CA         28.7703   20.0952    0.1892 C.3       0 UNK        -0.1979 
      2 C          28.8852   21.3355   -0.6838 C.2       0 UNK         0.4864 
      3 O          28.7877   21.2370   -1.9084 O.2       0 UNK        -0.5359 
      4 N          29.0742   22.5095   -0.0671 N.am      1 UNK        -0.4318 
      5 CA         29.2365   23.8100   -0.7311 C.3       1 UNK         0.0824 
      6 C6         30.0232   24.8070    0.1549 C.3       12 UNK        -0.0944 
      7 S7         31.7324   24.2464    0.4616 S.3       12 UNK        -0.2672 
      8 C8         31.6608   23.7037    2.2010 C.3       12 UNK         0.0333 
      9 C9         31.4039   24.8622    3.1547 C.ar      12 UNK        -0.0807 
     10 C10        32.3441   25.8889    3.2738 C.ar      12 UNK        -0.0894 
     11 C11        32.1136   26.9695    4.1282 C.ar      12 UNK        -0.0804 
     12 C12        30.9354   27.0128    4.8790 C.ar      12 UNK        -0.0824 
     13 C13        29.9943   25.9820    4.7850 C.ar      12 UNK        -0.0762 
     14 C14        30.2349   24.9079    3.9217 C.ar      12 UNK        -0.0782 
     15 C15        28.7298   26.0236    5.6355 C.3       12 UNK         0.0230 
     16 S16        27.1984   26.0438    4.6461 S.3       12 UNK        -0.2608 
     17 C17        27.3906   27.5671    3.6592 C.3       12 UNK        -0.0989 
     18 CA         27.2394   27.2744    2.1411 C.3       5 UNK         0.0716 
     19 N          25.9131   26.7816    1.7451 N.am      5 UNK        -0.4135 
     20 C          24.7395   27.4143    1.9018 C.2       4 UNK         0.5031 
     21 O          24.6104   28.4913    2.4855 O.2       4 UNK        -0.5229 
     22 CA         23.4838   26.7689    1.2841 C.3       4 UNK         0.0329 
     23 CB         22.9152   27.6651    0.1700 C.3       4 UNK        -0.2001 
     24 N          23.7037   25.4336    0.7288 N.am      4 UNK        -0.4303 
     25 C          23.8156   24.2930    1.4173 C.2       3 UNK         0.5044 
     26 O          23.7506   24.2306    2.6447 O.2       3 UNK        -0.5152 
     27 CA         24.0582   23.0015    0.6086 C.3       3 UNK         0.0319 
     28 CB         22.7231   22.3350    0.2240 C.3       3 UNK        -0.2001 
     29 N          24.9391   23.1537   -0.5632 N.am      3 UNK        -0.4354 
     30 C          24.7488   23.8648   -1.6873 C.2       2 UNK         0.4964 
     31 O          23.7241   24.5078   -1.9199 O.2       2 UNK        -0.5047 
     32 CA         25.9074   23.8934   -2.7053 C.3       2 UNK         0.0288 
     33 CB         25.9248   25.1952   -3.5340 C.3       2 UNK        -0.2113 
     34 N          27.2272   23.6440   -2.1100 N.am      2 UNK        -0.4145 
     35 C          27.8684   24.3677   -1.1798 C.2       1 UNK         0.5006 
     36 O          27.4104   25.3908   -0.6612 O.2       1 UNK        -0.5103 
     37 C          27.6370   28.4592    1.2409 C.2       5 UNK         0.5055 
     38 O          27.8369   29.5769    1.7194 O.2       5 UNK        -0.5220 
     39 N          27.7086   28.1822   -0.0686 N.am      6 UNK        -0.4450 
     40 CA         28.0198   29.1546   -1.1202 C.3       6 UNK         0.0367 
     41 CB         27.6210   28.5604   -2.4804 C.3       6 UNK        -0.1929 
     42 C          29.4894   29.6156   -1.1407 C.2       6 UNK         0.5070 
     43 O          29.7860   30.6379   -1.7602 O.2       6 UNK        -0.5237 
     44 N          30.3845   28.8640   -0.4861 N.am      7 UNK        -0.4739 
     45 CA         31.7973   29.2023   -0.3232 C.3       7 UNK         0.0276 
     46 CB         32.5626   27.9558    0.1482 C.3       7 UNK        -0.1927 
     47 C          31.9606   30.3670    0.6674 C.2       7 UNK         0.5013 
     48 O          31.7318   30.1849    1.8647 O.2       7 UNK        -0.5193 
     49 N          32.3357   31.5425    0.1500 N.am      8 UNK        -0.4253 
     50 CA         32.5629   32.7614    0.9245 C.3       8 UNK         0.0242 
     51 CB         32.3910   33.9808   -0.0007 C.3       8 UNK        -0.2000 
     52 C          33.9488   32.7254    1.5899 C.2       8 UNK         0.4948 
     53 O          34.9109   33.2616    1.0357 O.2       8 UNK        -0.5275 
     54 N          34.0291   32.0758    2.7539 N.am      9 UNK        -0.4246 
     55 CA         35.2222   31.9709    3.5875 C.3       9 UNK         0.0261 
     56 CB         36.0530   30.7483    3.1580 C.3       9 UNK        -0.1959 
     57 C          34.7869   31.8614    5.0521 C.2       9 UNK         0.5033 
     58 O          33.6566   31.4478    5.3275 O.2       9 UNK        -0.5390 
     59 N          35.6944   32.2090    5.9723 N.am      10 UNK        -0.4215 
     60 CA         35.4864   32.1664    7.4234 C.3       10 UNK         0.0240 
     61 CB         36.4449   33.1695    8.0940 C.3       10 UNK        -0.1982 
     62 C          35.6313   30.7375    7.9853 C.2       10 UNK         0.4970 
     63 O          36.4875   30.4913    8.8374 O.2       10 UNK        -0.4916 
     64 N          34.8084   29.8166    7.4738 N.am      11 UNK        -0.4279 
     65 CA         34.7455   28.4083    7.8868 C.3       11 UNK         0.1003 
     66 C          34.2201   28.2341    9.3382 C.2       11 UNK         0.5709 
     67 N          34.6900   27.2184   10.0498 N.am      11 UNK        -0.7358 
     68 O          33.3653   28.9831    9.8091 O.2       11 UNK        -0.4999 
     69 C69        33.9061   27.5635    6.8955 C.3       12 UNK        -0.0954 
     70 S70        34.5886   27.5941    5.2031 S.3       12 UNK        -0.2268 
     71 C71        33.1365   28.0915    4.2251 C.3       12 UNK         0.0203 
     72 H72        27.8033   19.6168    0.0367 H         1 UNK         0.0888 
     73 H73        29.5495   19.3801   -0.0731 H         1 UNK         0.0888 
     74 H74        28.8697   20.3308    1.2486 H         1 UNK         0.0888 
     75 H75        29.1201   22.5311    0.9406 H         1 UNK         0.3017 
     76 H76        29.8198   23.6607   -1.6430 H         1 UNK         0.0873 
     77 H77        29.5089   24.9728    1.1012 H         1 UNK         0.0745 
     78 H78        30.0887   25.7810   -0.3330 H         1 UNK         0.0745 
     79 H79        30.9006   22.9292    2.3082 H         1 UNK         0.0705 
     80 H80        32.6114   23.2363    2.4612 H         1 UNK         0.0705 
     81 H81        33.2531   25.8534    2.6886 H         1 UNK         0.1334 
     82 H82        30.7548   27.8485    5.5411 H         1 UNK         0.1417 
     83 H83        29.5056   24.1128    3.8470 H         1 UNK         0.1562 
     84 H84        28.7314   26.8934    6.2944 H         1 UNK         0.0748 
     85 H85        28.7145   25.1488    6.2869 H         1 UNK         0.0748 
     86 H86        28.3684   28.0071    3.8606 H         1 UNK         0.0940 
     87 H87        26.6646   28.3054    4.0009 H         1 UNK         0.0940 
     88 H88        27.9414   26.4756    1.9022 H         1 UNK         0.0703 
     89 H89        25.9140   25.9238    1.2116 H         1 UNK         0.3081 
     90 H90        22.7376   26.6915    2.0775 H         1 UNK         0.0719 
     91 H91        22.6863   28.6636    0.5454 H         1 UNK         0.0809 
     92 H92        23.6215   27.7797   -0.6535 H         1 UNK         0.0809 
     93 H93        21.9903   27.2550   -0.2362 H         1 UNK         0.0809 
     94 H94        23.7282   25.3554   -0.2855 H         1 UNK         0.2990 
     95 H95        24.5818   22.3166    1.2778 H         1 UNK         0.0690 
     96 H96        22.8864   21.3838   -0.2826 H         1 UNK         0.0788 
     97 H97        22.1242   22.9665   -0.4328 H         1 UNK         0.0788 
     98 H98        22.1217   22.1306    1.1108 H         1 UNK         0.0788 
     99 H99        25.8297   22.6852   -0.4795 H         1 UNK         0.2993 
    100 H100       25.7220   23.0660   -3.3919 H         1 UNK         0.0949 
    101 H101       25.9967   26.0744   -2.8947 H         1 UNK         0.0767 
    102 H102       26.7630   25.2146   -4.2305 H         1 UNK         0.0767 
    103 H103       25.0127   25.2976   -4.1235 H         1 UNK         0.0767 
    104 H104       27.6869   22.7841   -2.4013 H         1 UNK         0.3013 
    105 H105       27.5291   27.2251   -0.3685 H         1 UNK         0.3121 
    106 H106       27.4104   30.0443   -0.9472 H         1 UNK         0.0774 
    107 H107       28.1464   27.6262   -2.6833 H         1 UNK         0.0815 
    108 H108       26.5500   28.3638   -2.5233 H         1 UNK         0.0815 
    109 H109       27.8524   29.2494   -3.2939 H         1 UNK         0.0815 
    110 H110       30.0469   28.0666    0.0303 H         1 UNK         0.2987 
    111 H111       32.2013   29.4982   -1.2940 H         1 UNK         0.0949 
    112 H112       32.5280   27.1622   -0.5983 H         1 UNK         0.0806 
    113 H113       33.6131   28.1848    0.3318 H         1 UNK         0.0806 
    114 H114       32.1469   27.5605    1.0743 H         1 UNK         0.0806 
    115 H115       32.4969   31.6066   -0.8450 H         1 UNK         0.3010 
    116 H116       31.8078   32.8336    1.7109 H         1 UNK         0.0829 
    117 H117       33.0901   33.9602   -0.8378 H         1 UNK         0.0813 
    118 H118       32.5626   34.9099    0.5444 H         1 UNK         0.0813 
    119 H119       31.3814   34.0275   -0.4096 H         1 UNK         0.0813 
    120 H120       33.1974   31.6524    3.1525 H         1 UNK         0.3038 
    121 H121       35.8220   32.8773    3.4786 H         1 UNK         0.0769 
    122 H122       36.3943   30.8446    2.1272 H         1 UNK         0.0811 
    123 H123       35.4778   29.8256    3.2327 H         1 UNK         0.0811 
    124 H124       36.9395   30.6321    3.7825 H         1 UNK         0.0811 
    125 H125       36.6115   32.4975    5.6617 H         1 UNK         0.3204 
    126 H126       34.4667   32.4918    7.6414 H         1 UNK         0.0748 
    127 H127       37.4901   32.9114    7.9182 H         1 UNK         0.0771 
    128 H128       36.2822   34.1819    7.7236 H         1 UNK         0.0771 
    129 H129       36.2918   33.1947    9.1739 H         1 UNK         0.0771 
    130 H130       34.1492   30.1124    6.7621 H         1 UNK         0.2980 
    131 H131       35.7689   28.0280    7.8640 H         1 UNK         0.0545 
    132 H132       34.3504   27.0799   10.9888 H         1 UNK         0.3459 
    133 H133       35.3813   26.5906    9.6697 H         1 UNK         0.3459 
    134 H134       32.8729   27.9136    6.8865 H         1 UNK         0.0616 
    135 H135       33.8712   26.5196    7.2126 H         1 UNK         0.0616 
    136 H136       32.6916   28.9909    4.6531 H         1 UNK         0.0634 
    137 H137       33.4649   28.3650    3.2217 H         1 UNK         0.0634 
@<TRIPOS>BOND
     1    1    2 1    
     2    1   72 1    
     3    1   73 1    
     4    1   74 1    
     5    2    3 2    
     6    2    4 am   BACKBONE|DICT|INTERRES
     7    4    5 1    
     8    4   75 1    
     9    5    6 1    
    10    5   35 1    
    11    5   76 1    
    12    6    7 1    
    13    6   77 1    
    14    6   78 1    
    15    7    8 1    
    16    8    9 1    
    17    8   79 1    
    18    8   80 1    
    19    9   10 ar   
    20    9   14 ar   
    21   10   11 ar   
    22   10   81 1    
    23   11   12 ar   
    24   11   71 1    
    25   12   13 ar   
    26   12   82 1    
    27   13   14 ar   
    28   13   15 1    
    29   14   83 1    
    30   15   16 1    
    31   15   84 1    
    32   15   85 1    
    33   16   17 1    
    34   17   18 1    
    35   17   86 1    
    36   17   87 1    
    37   18   19 1    
    38   18   37 1    
    39   18   88 1    
    40   19   20 am   BACKBONE|DICT|INTERRES
    41   19   89 1    
    42   20   21 2    
    43   20   22 1    
    44   22   23 1    
    45   22   24 1    
    46   22   90 1    
    47   23   91 1    
    48   23   92 1    
    49   23   93 1    
    50   24   25 am   BACKBONE|DICT|INTERRES
    51   24   94 1    
    52   25   26 2    
    53   25   27 1    
    54   27   28 1    
    55   27   29 1    
    56   27   95 1    
    57   28   96 1    
    58   28   97 1    
    59   28   98 1    
    60   29   30 am   BACKBONE|DICT|INTERRES
    61   29   99 1    
    62   30   31 2    
    63   30   32 1    
    64   32   33 1    
    65   32   34 1    
    66   32  100 1    
    67   33  101 1    
    68   33  102 1    
    69   33  103 1    
    70   34   35 am   BACKBONE|DICT|INTERRES
    71   34  104 1    
    72   35   36 2    
    73   37   38 2    
    74   37   39 am   BACKBONE|DICT|INTERRES
    75   39   40 1    
    76   39  105 1    
    77   40   41 1    
    78   40   42 1    
    79   40  106 1    
    80   41  107 1    
    81   41  108 1    
    82   41  109 1    
    83   42   43 2    
    84   42   44 am   BACKBONE|DICT|INTERRES
    85   44   45 1    
    86   44  110 1    
    87   45   46 1    
    88   45   47 1    
    89   45  111 1    
    90   46  112 1    
    91   46  113 1    
    92   46  114 1    
    93   47   48 2    
    94   47   49 am   BACKBONE|DICT|INTERRES
    95   49   50 1    
    96   49  115 1    
    97   50   51 1    
    98   50   52 1    
    99   50  116 1    
   100   51  117 1    
   101   51  118 1    
   102   51  119 1    
   103   52   53 2    
   104   52   54 am   BACKBONE|DICT|INTERRES
   105   54   55 1    
   106   54  120 1    
   107   55   56 1    
   108   55   57 1    
   109   55  121 1    
   110   56  122 1    
   111   56  123 1    
   112   56  124 1    
   113   57   58 2    
   114   57   59 am   BACKBONE|DICT|INTERRES
   115   59   60 1    
   116   59  125 1    
   117   60   61 1    
   118   60   62 1    
   119   60  126 1    
   120   61  127 1    
   121   61  128 1    
   122   61  129 1    
   123   62   63 2    
   124   62   64 am   BACKBONE|DICT|INTERRES
   125   64   65 1    
   126   64  130 1    
   127   65   66 1    
   128   65   69 1    
   129   65  131 1    
   130   66   67 am   BACKBONE|DICT|INTERRES
   131   66   68 2    
   132   67  132 1    
   133   67  133 1    
   134   69   70 1    
   135   69  134 1    
   136   69  135 1    
   137   70   71 1    
   138   71  136 1    
   139   71  137 1    
@<TRIPOS>SUBSTRUCTURE
     1 UNK         1 GROUP             0       ****    0 ROOT    
