@<TRIPOS>MOLECULE
3R136
137   139    1
SMALL
USER_CHARGES


@<TRIPOS>ATOM
      1 CA         26.0122   25.6803    4.9095 C.3       0 UNK        -0.1979 
      2 C          26.2155   24.4979    3.9743 C.2       0 UNK         0.4864 
      3 O          25.4822   23.5113    4.0723 O.2       0 UNK        -0.5359 
      4 N          27.1935   24.5825    3.0633 N.am      1 UNK        -0.4318 
      5 CA         27.5067   23.5616    2.0563 C.3       1 UNK         0.0824 
      6 C6         28.9764   23.6647    1.5756 C.3       12 UNK        -0.0944 
      7 S7         30.1315   23.1552    2.8931 S.3       12 UNK        -0.2672 
      8 C8         31.7394   23.2699    2.0477 C.3       12 UNK         0.0333 
      9 C9         32.2240   24.7089    1.9634 C.ar      12 UNK        -0.0807 
     10 C10        32.7736   25.3274    3.0907 C.ar      12 UNK        -0.0894 
     11 C11        33.2028   26.6560    3.0331 C.ar      12 UNK        -0.0804 
     12 C12        33.0693   27.3681    1.8377 C.ar      12 UNK        -0.0824 
     13 C13        32.5423   26.7554    0.6983 C.ar      12 UNK        -0.0762 
     14 C14        32.1273   25.4215    0.7648 C.ar      12 UNK        -0.0782 
     15 C15        32.4342   27.5375   -0.6027 C.3       12 UNK         0.0230 
     16 S16        30.8873   28.4917   -0.6930 S.3       12 UNK        -0.2608 
     17 C17        29.6810   27.1529   -0.9739 C.3       12 UNK        -0.0989 
     18 CA         28.2187   27.6609   -1.0869 C.3       5 UNK         0.0716 
     19 N          27.3862   26.7420   -1.8563 N.am      5 UNK        -0.4135 
     20 C          27.4015   26.6227   -3.1875 C.2       4 UNK         0.5031 
     21 O          28.1163   27.3007   -3.9273 O.2       4 UNK        -0.5229 
     22 CA         26.4815   25.5621   -3.8119 C.3       4 UNK         0.0329 
     23 CB         27.2323   24.2291   -3.9662 C.3       4 UNK        -0.2001 
     24 N          25.2504   25.3319   -3.0554 N.am      4 UNK        -0.4303 
     25 C          24.2112   26.1785   -2.9956 C.2       3 UNK         0.5044 
     26 O          24.2002   27.2825   -3.5411 O.2       3 UNK        -0.5152 
     27 CA         22.9573   25.7079   -2.2323 C.3       3 UNK         0.0319 
     28 CB         21.7981   25.4498   -3.2101 C.3       3 UNK        -0.2001 
     29 N          23.2043   24.4862   -1.4617 N.am      3 UNK        -0.4354 
     30 C          23.6621   24.4627   -0.2041 C.2       2 UNK         0.4964 
     31 O          23.7672   25.4672    0.5008 O.2       2 UNK        -0.5047 
     32 CA         24.0599   23.0881    0.3694 C.3       2 UNK         0.0288 
     33 CB         24.2530   21.9847   -0.6982 C.3       2 UNK        -0.2113 
     34 N          25.2450   23.1776    1.2277 N.am      2 UNK        -0.4145 
     35 C          26.4788   23.5951    0.9024 C.2       1 UNK         0.5006 
     36 O          26.8088   23.9763   -0.2248 O.2       1 UNK        -0.5103 
     37 C          27.5683   27.8782    0.2905 C.2       5 UNK         0.5055 
     38 O          26.5751   27.2242    0.6168 O.2       5 UNK        -0.5220 
     39 N          28.1550   28.7897    1.0730 N.am      6 UNK        -0.4450 
     40 CA         27.8352   29.0213    2.4792 C.3       6 UNK         0.0367 
     41 CB         27.9513   30.5286    2.7824 C.3       6 UNK        -0.1929 
     42 C          28.7257   28.1207    3.3583 C.2       6 UNK         0.5070 
     43 O          28.8219   26.9226    3.0888 O.2       6 UNK        -0.5237 
     44 N          29.3370   28.6843    4.4042 N.am      7 UNK        -0.4739 
     45 CA         30.2002   27.9965    5.3606 C.3       7 UNK         0.0276 
     46 CB         29.3481   27.1458    6.3265 C.3       7 UNK        -0.1927 
     47 C          31.0421   29.0396    6.1113 C.2       7 UNK         0.5013 
     48 O          30.8901   30.2406    5.8629 O.2       7 UNK        -0.5193 
     49 N          31.9050   28.5585    7.0196 N.am      8 UNK        -0.4253 
     50 CA         32.7487   29.3257    7.9445 C.3       8 UNK         0.0242 
     51 CB         31.8830   29.9151    9.0820 C.3       8 UNK        -0.2000 
     52 C          33.6207   30.3684    7.2206 C.2       8 UNK         0.4948 
     53 O          34.5646   29.9858    6.5281 O.2       8 UNK        -0.5275 
     54 N          33.2686   31.6555    7.3571 N.am      9 UNK        -0.4246 
     55 CA         33.9381   32.8132    6.7541 C.3       9 UNK         0.0261 
     56 CB         33.2085   34.0956    7.1857 C.3       9 UNK        -0.1959 
     57 C          34.0710   32.7628    5.2202 C.2       9 UNK         0.5033 
     58 O          34.9649   33.4167    4.6818 O.2       9 UNK        -0.5390 
     59 N          33.2279   31.9650    4.5475 N.am      10 UNK        -0.4215 
     60 CA         33.3135   31.6763    3.1130 C.3       10 UNK         0.0240 
     61 CB         32.0489   30.9186    2.6776 C.3       10 UNK        -0.1982 
     62 C          34.5841   30.9100    2.6866 C.2       10 UNK         0.4970 
     63 O          34.8880   30.9011    1.4933 O.2       10 UNK        -0.4916 
     64 N          35.2949   30.2843    3.6346 N.am      11 UNK        -0.4279 
     65 CA         36.5430   29.5422    3.4028 C.3       11 UNK         0.1003 
     66 C          37.6332   29.8097    4.4803 C.2       11 UNK         0.5709 
     67 N          37.5135   30.8520    5.2950 N.am      11 UNK        -0.7358 
     68 O          38.6249   29.0881    4.5588 O.2       11 UNK        -0.4999 
     69 C69        36.2883   28.0398    3.0934 C.3       12 UNK        -0.0954 
     70 S70        35.5666   27.0749    4.4681 S.3       12 UNK        -0.2268 
     71 C71        33.7740   27.3285    4.2726 C.3       12 UNK         0.0203 
     72 H72        26.5496   26.5637    4.5702 H         1 UNK         0.0888 
     73 H73        26.3580   25.4305    5.9120 H         1 UNK         0.0888 
     74 H74        24.9544   25.9358    4.9667 H         1 UNK         0.0888 
     75 H75        27.7735   25.4209    3.0244 H         1 UNK         0.3017 
     76 H76        27.3949   22.5800    2.5229 H         1 UNK         0.0873 
     77 H77        29.1505   23.0212    0.7111 H         1 UNK         0.0745 
     78 H78        29.2087   24.6834    1.2635 H         1 UNK         0.0745 
     79 H79        32.4693   22.6768    2.6006 H         1 UNK         0.0705 
     80 H80        31.6693   22.8192    1.0565 H         1 UNK         0.0705 
     81 H81        32.8559   24.7752    4.0169 H         1 UNK         0.1334 
     82 H82        33.3850   28.3999    1.7861 H         1 UNK         0.1417 
     83 H83        31.7165   24.9417   -0.1129 H         1 UNK         0.1562 
     84 H84        32.5056   26.8683   -1.4616 H         1 UNK         0.0748 
     85 H85        33.2757   28.2272   -0.6863 H         1 UNK         0.0748 
     86 H86        29.7645   26.4065   -0.1845 H         1 UNK         0.0940 
     87 H87        29.9824   26.6480   -1.8930 H         1 UNK         0.0940 
     88 H88        28.2045   28.6237   -1.6029 H         1 UNK         0.0703 
     89 H89        26.7645   26.1689   -1.2952 H         1 UNK         0.3081 
     90 H90        26.2048   25.9136   -4.8084 H         1 UNK         0.0719 
     91 H91        27.5183   23.8127   -2.9990 H         1 UNK         0.0809 
     92 H92        26.6245   23.4879   -4.4853 H         1 UNK         0.0809 
     93 H93        28.1462   24.3609   -4.5471 H         1 UNK         0.0809 
     94 H94        25.1929   24.4655   -2.5414 H         1 UNK         0.2990 
     95 H95        22.6604   26.5156   -1.5598 H         1 UNK         0.0690 
     96 H96        20.8917   25.1548   -2.6810 H         1 UNK         0.0788 
     97 H97        22.0399   24.6643   -3.9273 H         1 UNK         0.0788 
     98 H98        21.5597   26.3490   -3.7800 H         1 UNK         0.0788 
     99 H99        23.1087   23.6102   -1.9560 H         1 UNK         0.2993 
    100 H100       23.2369   22.7846    1.0182 H         1 UNK         0.0949 
    101 H101       23.3264   21.7785   -1.2351 H         1 UNK         0.0767 
    102 H102       25.0153   22.2509   -1.4315 H         1 UNK         0.0767 
    103 H103       24.5596   21.0462   -0.2357 H         1 UNK         0.0767 
    104 H104       25.0853   22.9989    2.2158 H         1 UNK         0.3013 
    105 H105       29.0069   29.2151    0.7315 H         1 UNK         0.3121 
    106 H106       26.8023   28.7250    2.6744 H         1 UNK         0.0774 
    107 H107       27.2911   31.1067    2.1356 H         1 UNK         0.0815 
    108 H108       28.9640   30.8986    2.6296 H         1 UNK         0.0815 
    109 H109       27.6601   30.7543    3.8091 H         1 UNK         0.0815 
    110 H110       29.2726   29.6838    4.5564 H         1 UNK         0.2987 
    111 H111       30.8805   27.3458    4.8083 H         1 UNK         0.0949 
    112 H112       28.6253   27.7569    6.8683 H         1 UNK         0.0806 
    113 H113       28.7987   26.3715    5.7921 H         1 UNK         0.0806 
    114 H114       29.9635   26.6331    7.0661 H         1 UNK         0.0806 
    115 H115       31.9725   27.5556    7.1198 H         1 UNK         0.3010 
    116 H116       33.4444   28.6159    8.3949 H         1 UNK         0.0829 
    117 H117       31.3926   29.1215    9.6460 H         1 UNK         0.0813 
    118 H118       32.4906   30.4778    9.7924 H         1 UNK         0.0813 
    119 H119       31.1010   30.5780    8.7096 H         1 UNK         0.0813 
    120 H120       32.4503   31.8546    7.9143 H         1 UNK         0.3038 
    121 H121       34.9514   32.8430    7.1596 H         1 UNK         0.0769 
    122 H122       32.1743   34.1070    6.8391 H         1 UNK         0.0811 
    123 H123       33.6986   34.9809    6.7775 H         1 UNK         0.0811 
    124 H124       33.2020   34.2046    8.2705 H         1 UNK         0.0811 
    125 H125       32.5152   31.4686    5.0724 H         1 UNK         0.3204 
    126 H126       33.3313   32.6329    2.5867 H         1 UNK         0.0748 
    127 H127       31.1579   31.5105    2.8815 H         1 UNK         0.0771 
    128 H128       32.0608   30.7099    1.6067 H         1 UNK         0.0771 
    129 H129       31.9445   29.9652    3.1958 H         1 UNK         0.0771 
    130 H130       34.9828   30.3027    4.6018 H         1 UNK         0.2980 
    131 H131       37.0038   29.9568    2.5046 H         1 UNK         0.0545 
    132 H132       36.7311   31.4816    5.2156 H         1 UNK         0.3459 
    133 H133       38.2297   31.0205    5.9834 H         1 UNK         0.3459 
    134 H134       35.6626   27.9446    2.2082 H         1 UNK         0.0616 
    135 H135       37.2278   27.5579    2.8187 H         1 UNK         0.0616 
    136 H136       33.5417   28.3921    4.2738 H         1 UNK         0.0634 
    137 H137       33.2894   26.9173    5.1580 H         1 UNK         0.0634 
@<TRIPOS>BOND
     1    1    2 1    
     2    1   72 1    
     3    1   73 1    
     4    1   74 1    
     5    2    3 2    
     6    2    4 am   BACKBONE|DICT|INTERRES
     7    4    5 1    
     8    4   75 1    
     9    5    6 1    
    10    5   35 1    
    11    5   76 1    
    12    6    7 1    
    13    6   77 1    
    14    6   78 1    
    15    7    8 1    
    16    8    9 1    
    17    8   79 1    
    18    8   80 1    
    19    9   10 ar   
    20    9   14 ar   
    21   10   11 ar   
    22   10   81 1    
    23   11   12 ar   
    24   11   71 1    
    25   12   13 ar   
    26   12   82 1    
    27   13   14 ar   
    28   13   15 1    
    29   14   83 1    
    30   15   16 1    
    31   15   84 1    
    32   15   85 1    
    33   16   17 1    
    34   17   18 1    
    35   17   86 1    
    36   17   87 1    
    37   18   19 1    
    38   18   37 1    
    39   18   88 1    
    40   19   20 am   BACKBONE|DICT|INTERRES
    41   19   89 1    
    42   20   21 2    
    43   20   22 1    
    44   22   23 1    
    45   22   24 1    
    46   22   90 1    
    47   23   91 1    
    48   23   92 1    
    49   23   93 1    
    50   24   25 am   BACKBONE|DICT|INTERRES
    51   24   94 1    
    52   25   26 2    
    53   25   27 1    
    54   27   28 1    
    55   27   29 1    
    56   27   95 1    
    57   28   96 1    
    58   28   97 1    
    59   28   98 1    
    60   29   30 am   BACKBONE|DICT|INTERRES
    61   29   99 1    
    62   30   31 2    
    63   30   32 1    
    64   32   33 1    
    65   32   34 1    
    66   32  100 1    
    67   33  101 1    
    68   33  102 1    
    69   33  103 1    
    70   34   35 am   BACKBONE|DICT|INTERRES
    71   34  104 1    
    72   35   36 2    
    73   37   38 2    
    74   37   39 am   BACKBONE|DICT|INTERRES
    75   39   40 1    
    76   39  105 1    
    77   40   41 1    
    78   40   42 1    
    79   40  106 1    
    80   41  107 1    
    81   41  108 1    
    82   41  109 1    
    83   42   43 2    
    84   42   44 am   BACKBONE|DICT|INTERRES
    85   44   45 1    
    86   44  110 1    
    87   45   46 1    
    88   45   47 1    
    89   45  111 1    
    90   46  112 1    
    91   46  113 1    
    92   46  114 1    
    93   47   48 2    
    94   47   49 am   BACKBONE|DICT|INTERRES
    95   49   50 1    
    96   49  115 1    
    97   50   51 1    
    98   50   52 1    
    99   50  116 1    
   100   51  117 1    
   101   51  118 1    
   102   51  119 1    
   103   52   53 2    
   104   52   54 am   BACKBONE|DICT|INTERRES
   105   54   55 1    
   106   54  120 1    
   107   55   56 1    
   108   55   57 1    
   109   55  121 1    
   110   56  122 1    
   111   56  123 1    
   112   56  124 1    
   113   57   58 2    
   114   57   59 am   BACKBONE|DICT|INTERRES
   115   59   60 1    
   116   59  125 1    
   117   60   61 1    
   118   60   62 1    
   119   60  126 1    
   120   61  127 1    
   121   61  128 1    
   122   61  129 1    
   123   62   63 2    
   124   62   64 am   BACKBONE|DICT|INTERRES
   125   64   65 1    
   126   64  130 1    
   127   65   66 1    
   128   65   69 1    
   129   65  131 1    
   130   66   67 am   BACKBONE|DICT|INTERRES
   131   66   68 2    
   132   67  132 1    
   133   67  133 1    
   134   69   70 1    
   135   69  134 1    
   136   69  135 1    
   137   70   71 1    
   138   71  136 1    
   139   71  137 1    
@<TRIPOS>SUBSTRUCTURE
     1 UNK         1 GROUP             0       ****    0 ROOT    
