@<TRIPOS>MOLECULE
3R136
137   139    1
SMALL
USER_CHARGES


@<TRIPOS>ATOM
      1 CA         25.0568   19.0255    1.7902 C.3       0 UNK        -0.1979 
      2 C          25.9528   20.2093    1.4586 C.2       0 UNK         0.4864 
      3 O          25.4472   21.2915    1.1581 O.2       0 UNK        -0.5359 
      4 N          27.2778   20.0048    1.4848 N.am      1 UNK        -0.4318 
      5 CA         28.3642   20.9818    1.2786 C.3       1 UNK         0.0824 
      6 C6         28.3633   22.1558    2.2953 C.3       12 UNK        -0.0944 
      7 S7         28.4063   21.5880    4.0286 S.3       12 UNK        -0.2672 
      8 C8         30.1805   21.7212    4.4264 C.3       12 UNK         0.0333 
      9 C9         30.6662   23.1644    4.4967 C.ar      12 UNK        -0.0807 
     10 C10        31.7241   23.5936    3.6884 C.ar      12 UNK        -0.0894 
     11 C11        32.1910   24.9091    3.7727 C.ar      12 UNK        -0.0804 
     12 C12        31.5957   25.7982    4.6714 C.ar      12 UNK        -0.0824 
     13 C13        30.5129   25.3923    5.4538 C.ar      12 UNK        -0.0762 
     14 C14        30.0672   24.0693    5.3789 C.ar      12 UNK        -0.0782 
     15 C15        29.8002   26.3835    6.3590 C.3       12 UNK         0.0230 
     16 S16        28.2439   26.9455    5.5970 S.3       12 UNK        -0.2608 
     17 C17        28.7724   28.4018    4.6291 C.3       12 UNK        -0.0989 
     18 CA         29.2814   28.0962    3.1894 C.3       5 UNK         0.0716 
     19 N          28.4054   27.2145    2.4093 N.am      5 UNK        -0.4135 
     20 C          27.1373   27.4514    2.0478 C.2       4 UNK         0.5031 
     21 O          26.5076   28.4610    2.3678 O.2       4 UNK        -0.5229 
     22 CA         26.4840   26.3833    1.1439 C.3       4 UNK         0.0329 
     23 CB         25.2206   26.9058    0.4283 C.3       4 UNK        -0.2001 
     24 N          27.4072   25.7876    0.1638 N.am      4 UNK        -0.4303 
     25 C          28.1517   26.4317   -0.7515 C.2       3 UNK         0.5044 
     26 O          28.2162   27.6576   -0.8411 O.2       3 UNK        -0.5152 
     27 CA         28.9967   25.5745   -1.7126 C.3       3 UNK         0.0319 
     28 CB         30.4783   25.6254   -1.3093 C.3       3 UNK        -0.2001 
     29 N          28.5757   24.1735   -1.7781 N.am      3 UNK        -0.4354 
     30 C          27.4679   23.7167   -2.3747 C.2       2 UNK         0.4964 
     31 O          26.6828   24.4337   -2.9952 O.2       2 UNK        -0.5047 
     32 CA         27.1623   22.2145   -2.2302 C.3       2 UNK         0.0288 
     33 CB         27.9264   21.3835   -3.2797 C.3       2 UNK        -0.2113 
     34 N          27.3554   21.6875   -0.8693 N.am      2 UNK        -0.4145 
     35 C          28.4839   21.5246   -0.1632 C.2       1 UNK         0.5006 
     36 O          29.6013   21.8122   -0.5952 O.2       1 UNK        -0.5103 
     37 C          29.6914   29.3858    2.4372 C.2       5 UNK         0.5055 
     38 O          30.1883   30.3128    3.0792 O.2       5 UNK        -0.5220 
     39 N          29.4985   29.4383    1.1073 N.am      6 UNK        -0.4450 
     40 CA         29.8275   30.5468    0.2040 C.3       6 UNK         0.0367 
     41 CB         31.3562   30.6400    0.0036 C.3       6 UNK        -0.1929 
     42 C          29.1686   31.8685    0.6445 C.2       6 UNK         0.5070 
     43 O          27.9545   32.0130    0.5037 O.2       6 UNK        -0.5237 
     44 N          29.9632   32.7914    1.2010 N.am      7 UNK        -0.4739 
     45 CA         29.5300   34.0809    1.7501 C.3       7 UNK         0.0276 
     46 CB         30.6745   35.0955    1.5680 C.3       7 UNK        -0.1927 
     47 C          29.0736   33.9884    3.2238 C.2       7 UNK         0.5013 
     48 O          29.1385   34.9912    3.9364 O.2       7 UNK        -0.5193 
     49 N          28.6409   32.7941    3.6556 N.am      8 UNK        -0.4253 
     50 CA         28.2877   32.3987    5.0245 C.3       8 UNK         0.0242 
     51 CB         27.0861   33.2073    5.5602 C.3       8 UNK        -0.2000 
     52 C          29.5148   32.4258    5.9547 C.2       8 UNK         0.4948 
     53 O          29.4489   32.9787    7.0548 O.2       8 UNK        -0.5275 
     54 N          30.6198   31.8386    5.4806 N.am      9 UNK        -0.4246 
     55 CA         31.9148   31.7946    6.1535 C.3       9 UNK         0.0261 
     56 CB         32.6359   33.1549    6.0025 C.3       9 UNK        -0.1959 
     57 C          32.7072   30.5922    5.6143 C.2       9 UNK         0.5033 
     58 O          32.1422   29.5042    5.4852 O.2       9 UNK        -0.5390 
     59 N          33.9964   30.7934    5.3158 N.am      10 UNK        -0.4215 
     60 CA         34.8491   29.8185    4.6384 C.3       10 UNK         0.0240 
     61 CB         36.3233   30.1634    4.9070 C.3       10 UNK        -0.1982 
     62 C          34.5631   29.8147    3.1286 C.2       10 UNK         0.4970 
     63 O          34.2642   30.8673    2.5585 O.2       10 UNK        -0.4916 
     64 N          34.6900   28.6368    2.5127 N.am      11 UNK        -0.4279 
     65 CA         34.5293   28.4319    1.0674 C.3       11 UNK         0.1003 
     66 C          35.7474   28.9575    0.2613 C.2       11 UNK         0.5709 
     67 N          35.5345   29.3806   -0.9773 N.am      11 UNK        -0.7358 
     68 O          36.8842   28.9506    0.7314 O.2       11 UNK        -0.4999 
     69 C69        34.2360   26.9470    0.7349 C.3       12 UNK        -0.0954 
     70 S70        32.6843   26.3710    1.4984 S.3       12 UNK        -0.2268 
     71 C71        33.3262   25.3841    2.8836 C.3       12 UNK         0.0203 
     72 H72        25.6326   18.1308    2.0264 H         1 UNK         0.0888 
     73 H73        24.4297   19.2612    2.6496 H         1 UNK         0.0888 
     74 H74        24.4069   18.7982    0.9457 H         1 UNK         0.0888 
     75 H75        27.6039   19.0743    1.7075 H         1 UNK         0.3017 
     76 H76        29.2822   20.4159    1.4466 H         1 UNK         0.0873 
     77 H77        29.2123   22.8193    2.1195 H         1 UNK         0.0745 
     78 H78        27.4731   22.7743    2.1691 H         1 UNK         0.0745 
     79 H79        30.7519   21.1495    3.6935 H         1 UNK         0.0705 
     80 H80        30.3584   21.2460    5.3920 H         1 UNK         0.0705 
     81 H81        32.1860   22.9050    2.9939 H         1 UNK         0.1334 
     82 H82        31.9502   26.8193    4.7311 H         1 UNK         0.1417 
     83 H83        29.2344   23.7493    5.9907 H         1 UNK         0.1562 
     84 H84        30.4404   27.2361    6.5920 H         1 UNK         0.0748 
     85 H85        29.5727   25.9035    7.3119 H         1 UNK         0.0748 
     86 H86        29.5326   28.9366    5.2006 H         1 UNK         0.0940 
     87 H87        27.9142   29.0724    4.5791 H         1 UNK         0.0940 
     88 H88        30.2139   27.5462    3.2839 H         1 UNK         0.0703 
     89 H89        28.8296   26.3525    2.0994 H         1 UNK         0.3081 
     90 H90        26.1765   25.5745    1.8087 H         1 UNK         0.0719 
     91 H91        25.4476   27.7518   -0.2217 H         1 UNK         0.0809 
     92 H92        24.7600   26.1288   -0.1818 H         1 UNK         0.0809 
     93 H93        24.4706   27.2387    1.1469 H         1 UNK         0.0809 
     94 H94        27.4438   24.7789    0.1550 H         1 UNK         0.2990 
     95 H95        28.8962   26.0106   -2.7087 H         1 UNK         0.0690 
     96 H96        31.1067   25.1217   -2.0439 H         1 UNK         0.0788 
     97 H97        30.6465   25.1476   -0.3435 H         1 UNK         0.0788 
     98 H98        30.8334   26.6544   -1.2325 H         1 UNK         0.0788 
     99 H99        29.1701   23.4858   -1.3212 H         1 UNK         0.2993 
    100 H100       26.0970   22.0969   -2.4368 H         1 UNK         0.0949 
    101 H101       29.0073   21.4658   -3.1625 H         1 UNK         0.0767 
    102 H102       27.6618   20.3279   -3.2174 H         1 UNK         0.0767 
    103 H103       27.6856   21.7189   -4.2894 H         1 UNK         0.0767 
    104 H104       26.4971   21.4969   -0.3547 H         1 UNK         0.3013 
    105 H105       29.0247   28.6620    0.6544 H         1 UNK         0.3121 
    106 H106       29.3859   30.2972   -0.7621 H         1 UNK         0.0774 
    107 H107       31.6190   31.4631   -0.6624 H         1 UNK         0.0815 
    108 H108       31.8915   30.7858    0.9427 H         1 UNK         0.0815 
    109 H109       31.7366   29.7276   -0.4549 H         1 UNK         0.0815 
    110 H110       30.9370   32.5547    1.3308 H         1 UNK         0.2987 
    111 H111       28.6710   34.4394    1.1786 H         1 UNK         0.0949 
    112 H112       30.9823   35.1643    0.5245 H         1 UNK         0.0806 
    113 H113       30.3680   36.0959    1.8764 H         1 UNK         0.0806 
    114 H114       31.5497   34.8249    2.1602 H         1 UNK         0.0806 
    115 H115       28.6949   32.0325    2.9913 H         1 UNK         0.3010 
    116 H116       27.9735   31.3572    4.9675 H         1 UNK         0.0829 
    117 H117       26.2385   33.1584    4.8768 H         1 UNK         0.0813 
    118 H118       26.7514   32.8130    6.5204 H         1 UNK         0.0813 
    119 H119       27.3348   34.2577    5.7133 H         1 UNK         0.0813 
    120 H120       30.5698   31.3312    4.5964 H         1 UNK         0.3038 
    121 H121       31.7496   31.6033    7.2157 H         1 UNK         0.0769 
    122 H122       33.5729   33.1771    6.5600 H         1 UNK         0.0811 
    123 H123       32.0257   33.9702    6.3918 H         1 UNK         0.0811 
    124 H124       32.8547   33.3826    4.9581 H         1 UNK         0.0811 
    125 H125       34.3680   31.7270    5.4105 H         1 UNK         0.3204 
    126 H126       34.6429   28.8256    5.0450 H         1 UNK         0.0748 
    127 H127       36.9869   29.4390    4.4326 H         1 UNK         0.0771 
    128 H128       36.5861   31.1480    4.5175 H         1 UNK         0.0771 
    129 H129       36.5450   30.1540    5.9745 H         1 UNK         0.0771 
    130 H130       34.9927   27.8341    3.0413 H         1 UNK         0.2980 
    131 H131       33.6629   29.0152    0.7540 H         1 UNK         0.0545 
    132 H132       36.3159   29.7124   -1.5208 H         1 UNK         0.3459 
    133 H133       34.6109   29.3773   -1.3805 H         1 UNK         0.3459 
    134 H134       35.0646   26.3062    1.0422 H         1 UNK         0.0616 
    135 H135       34.1315   26.8122   -0.3432 H         1 UNK         0.0616 
    136 H136       33.8919   24.5370    2.4923 H         1 UNK         0.0634 
    137 H137       34.0231   25.9806    3.4730 H         1 UNK         0.0634 
@<TRIPOS>BOND
     1    1    2 1    
     2    1   72 1    
     3    1   73 1    
     4    1   74 1    
     5    2    3 2    
     6    2    4 am   BACKBONE|DICT|INTERRES
     7    4    5 1    
     8    4   75 1    
     9    5    6 1    
    10    5   35 1    
    11    5   76 1    
    12    6    7 1    
    13    6   77 1    
    14    6   78 1    
    15    7    8 1    
    16    8    9 1    
    17    8   79 1    
    18    8   80 1    
    19    9   10 ar   
    20    9   14 ar   
    21   10   11 ar   
    22   10   81 1    
    23   11   12 ar   
    24   11   71 1    
    25   12   13 ar   
    26   12   82 1    
    27   13   14 ar   
    28   13   15 1    
    29   14   83 1    
    30   15   16 1    
    31   15   84 1    
    32   15   85 1    
    33   16   17 1    
    34   17   18 1    
    35   17   86 1    
    36   17   87 1    
    37   18   19 1    
    38   18   37 1    
    39   18   88 1    
    40   19   20 am   BACKBONE|DICT|INTERRES
    41   19   89 1    
    42   20   21 2    
    43   20   22 1    
    44   22   23 1    
    45   22   24 1    
    46   22   90 1    
    47   23   91 1    
    48   23   92 1    
    49   23   93 1    
    50   24   25 am   BACKBONE|DICT|INTERRES
    51   24   94 1    
    52   25   26 2    
    53   25   27 1    
    54   27   28 1    
    55   27   29 1    
    56   27   95 1    
    57   28   96 1    
    58   28   97 1    
    59   28   98 1    
    60   29   30 am   BACKBONE|DICT|INTERRES
    61   29   99 1    
    62   30   31 2    
    63   30   32 1    
    64   32   33 1    
    65   32   34 1    
    66   32  100 1    
    67   33  101 1    
    68   33  102 1    
    69   33  103 1    
    70   34   35 am   BACKBONE|DICT|INTERRES
    71   34  104 1    
    72   35   36 2    
    73   37   38 2    
    74   37   39 am   BACKBONE|DICT|INTERRES
    75   39   40 1    
    76   39  105 1    
    77   40   41 1    
    78   40   42 1    
    79   40  106 1    
    80   41  107 1    
    81   41  108 1    
    82   41  109 1    
    83   42   43 2    
    84   42   44 am   BACKBONE|DICT|INTERRES
    85   44   45 1    
    86   44  110 1    
    87   45   46 1    
    88   45   47 1    
    89   45  111 1    
    90   46  112 1    
    91   46  113 1    
    92   46  114 1    
    93   47   48 2    
    94   47   49 am   BACKBONE|DICT|INTERRES
    95   49   50 1    
    96   49  115 1    
    97   50   51 1    
    98   50   52 1    
    99   50  116 1    
   100   51  117 1    
   101   51  118 1    
   102   51  119 1    
   103   52   53 2    
   104   52   54 am   BACKBONE|DICT|INTERRES
   105   54   55 1    
   106   54  120 1    
   107   55   56 1    
   108   55   57 1    
   109   55  121 1    
   110   56  122 1    
   111   56  123 1    
   112   56  124 1    
   113   57   58 2    
   114   57   59 am   BACKBONE|DICT|INTERRES
   115   59   60 1    
   116   59  125 1    
   117   60   61 1    
   118   60   62 1    
   119   60  126 1    
   120   61  127 1    
   121   61  128 1    
   122   61  129 1    
   123   62   63 2    
   124   62   64 am   BACKBONE|DICT|INTERRES
   125   64   65 1    
   126   64  130 1    
   127   65   66 1    
   128   65   69 1    
   129   65  131 1    
   130   66   67 am   BACKBONE|DICT|INTERRES
   131   66   68 2    
   132   67  132 1    
   133   67  133 1    
   134   69   70 1    
   135   69  134 1    
   136   69  135 1    
   137   70   71 1    
   138   71  136 1    
   139   71  137 1    
@<TRIPOS>SUBSTRUCTURE
     1 UNK         1 GROUP             0       ****    0 ROOT    
