@<TRIPOS>MOLECULE
3R136
137   139    1
SMALL
USER_CHARGES


@<TRIPOS>ATOM
      1 CA         26.8493   20.4247    5.9214 C.3       0 UNK        -0.1979 
      2 C          27.3639   20.6154    4.5019 C.2       0 UNK         0.4864 
      3 O          27.3722   19.6616    3.7216 O.2       0 UNK        -0.5359 
      4 N          27.8010   21.8357    4.1663 N.am      1 UNK        -0.4318 
      5 CA         28.2844   22.2159    2.8353 C.3       1 UNK         0.0824 
      6 C6         29.0332   23.5698    2.8646 C.3       12 UNK        -0.0944 
      7 S7         30.6455   23.4303    3.7051 S.3       12 UNK        -0.2672 
      8 C8         31.7639   23.0553    2.3163 C.3       12 UNK         0.0333 
      9 C9         32.0289   24.2738    1.4431 C.ar      12 UNK        -0.0807 
     10 C10        33.0141   25.1970    1.8061 C.ar      12 UNK        -0.0894 
     11 C11        33.2739   26.3105    1.0014 C.ar      12 UNK        -0.0804 
     12 C12        32.5415   26.4965   -0.1746 C.ar      12 UNK        -0.0824 
     13 C13        31.5295   25.5992   -0.5295 C.ar      12 UNK        -0.0762 
     14 C14        31.2950   24.4778    0.2704 C.ar      12 UNK        -0.0782 
     15 C15        30.6545   25.8589   -1.7503 C.3       12 UNK         0.0230 
     16 S16        29.7732   27.4553   -1.6557 S.3       12 UNK        -0.2608 
     17 C17        29.1405   27.4420    0.0565 C.3       12 UNK        -0.0989 
     18 CA         28.0723   28.5352    0.2826 C.3       5 UNK         0.0716 
     19 N          26.8391   28.2276   -0.4427 N.am      5 UNK        -0.4135 
     20 C          25.7661   29.0231   -0.5473 C.2       4 UNK         0.5031 
     21 O          25.6921   30.1373   -0.0260 O.2       4 UNK        -0.5229 
     22 CA         24.5857   28.5209   -1.4055 C.3       4 UNK         0.0329 
     23 CB         24.1196   29.6034   -2.3965 C.3       4 UNK        -0.2001 
     24 N          24.8945   27.3018   -2.1605 N.am      4 UNK        -0.4303 
     25 C          24.7628   26.0511   -1.7014 C.2       3 UNK         0.5044 
     26 O          24.3290   25.7820   -0.5794 O.2       3 UNK        -0.5152 
     27 CA         25.1551   24.9181   -2.6731 C.3       3 UNK         0.0319 
     28 CB         26.2952   25.3052   -3.6459 C.3       3 UNK        -0.2001 
     29 N          25.4671   23.6607   -1.9825 N.am      3 UNK        -0.4354 
     30 C          26.4857   23.4268   -1.1423 C.2       2 UNK         0.4964 
     31 O          27.3490   24.2562   -0.8421 O.2       2 UNK        -0.5047 
     32 CA         26.5710   21.9906   -0.5958 C.3       2 UNK         0.0288 
     33 CB         27.0876   21.0305   -1.6823 C.3       2 UNK        -0.2113 
     34 N          27.4629   21.9042    0.5595 N.am      2 UNK        -0.4145 
     35 C          27.1361   22.2610    1.8076 C.2       1 UNK         0.5006 
     36 O          26.0101   22.6350    2.1490 O.2       1 UNK        -0.5103 
     37 C          27.8229   28.7451    1.7900 C.2       5 UNK         0.5055 
     38 O          27.1020   27.9599    2.4098 O.2       5 UNK        -0.5220 
     39 N          28.4523   29.7867    2.3502 N.am      6 UNK        -0.4450 
     40 CA         28.3402   30.1766    3.7599 C.3       6 UNK         0.0367 
     41 CB         28.7059   31.6631    3.9070 C.3       6 UNK        -0.1929 
     42 C          29.1791   29.3135    4.7209 C.2       6 UNK         0.5070 
     43 O          28.9835   29.4199    5.9314 O.2       6 UNK        -0.5237 
     44 N          30.0994   28.4953    4.1866 N.am      7 UNK        -0.4739 
     45 CA         30.9457   27.4875    4.8514 C.3       7 UNK         0.0276 
     46 CB         30.0769   26.4283    5.5560 C.3       7 UNK        -0.1927 
     47 C          32.0137   28.0229    5.8261 C.2       7 UNK         0.5013 
     48 O          33.0838   27.4210    5.9290 O.2       7 UNK        -0.5193 
     49 N          31.7228   29.1184    6.5359 N.am      8 UNK        -0.4253 
     50 CA         32.5487   29.7232    7.5851 C.3       8 UNK         0.0242 
     51 CB         31.6462   30.6128    8.4612 C.3       8 UNK        -0.2000 
     52 C          33.7752   30.4840    7.0400 C.2       8 UNK         0.4948 
     53 O          33.9151   31.6828    7.2934 O.2       8 UNK        -0.5275 
     54 N          34.6384   29.7787    6.2949 N.am      9 UNK        -0.4246 
     55 CA         35.8940   30.2089    5.6567 C.3       9 UNK         0.0261 
     56 CB         36.9306   30.6740    6.6981 C.3       9 UNK        -0.1959 
     57 C          35.7122   31.2548    4.5422 C.2       9 UNK         0.5033 
     58 O          36.1876   31.0418    3.4260 O.2       9 UNK        -0.5390 
     59 N          34.9942   32.3426    4.8391 N.am      10 UNK        -0.4215 
     60 CA         34.5063   33.3309    3.8798 C.3       10 UNK         0.0240 
     61 CB         34.3225   34.6796    4.5998 C.3       10 UNK        -0.1982 
     62 C          33.2030   32.8047    3.2561 C.2       10 UNK         0.4970 
     63 O          32.1207   33.3052    3.5653 O.2       10 UNK        -0.4916 
     64 N          33.3358   31.7493    2.4448 N.am      11 UNK        -0.4279 
     65 CA         32.2251   30.9626    1.8908 C.3       11 UNK         0.1003 
     66 C          31.3111   31.7128    0.8829 C.2       11 UNK         0.5709 
     67 N          31.7505   32.8033    0.2677 N.am      11 UNK        -0.7358 
     68 O          30.1745   31.2968    0.6747 O.2       11 UNK        -0.4999 
     69 C69        32.7139   29.6213    1.2907 C.3       12 UNK        -0.0954 
     70 S70        33.6419   28.6105    2.4913 S.3       12 UNK        -0.2268 
     71 C71        34.3346   27.3197    1.4130 C.3       12 UNK         0.0203 
     72 H72        25.8073   20.1064    5.9028 H         1 UNK         0.0888 
     73 H73        27.4315   19.6580    6.4319 H         1 UNK         0.0888 
     74 H74        26.9129   21.3430    6.5049 H         1 UNK         0.0888 
     75 H75        27.7616   22.5823    4.8446 H         1 UNK         0.3017 
     76 H76        28.9831   21.4416    2.5098 H         1 UNK         0.0873 
     77 H77        28.4350   24.3242    3.3784 H         1 UNK         0.0745 
     78 H78        29.1856   23.9639    1.8607 H         1 UNK         0.0745 
     79 H79        31.3512   22.2379    1.7233 H         1 UNK         0.0705 
     80 H80        32.7082   22.6871    2.7201 H         1 UNK         0.0705 
     81 H81        33.5744   25.0522    2.7200 H         1 UNK         0.1334 
     82 H82        32.7271   27.3638   -0.7934 H         1 UNK         0.1417 
     83 H83        30.5235   23.7743   -0.0113 H         1 UNK         0.1562 
     84 H84        29.9147   25.0659   -1.8729 H         1 UNK         0.0748 
     85 H85        31.2736   25.8453   -2.6480 H         1 UNK         0.0748 
     86 H86        29.9911   27.5892    0.7237 H         1 UNK         0.0940 
     87 H87        28.7393   26.4530    0.2903 H         1 UNK         0.0940 
     88 H88        28.4473   29.4745   -0.1285 H         1 UNK         0.0703 
     89 H89        26.8046   27.3206   -0.8829 H         1 UNK         0.3081 
     90 H90        23.7603   28.3174   -0.7200 H         1 UNK         0.0719 
     91 H91        23.8050   30.5077   -1.8735 H         1 UNK         0.0809 
     92 H92        24.9141   29.8869   -3.0879 H         1 UNK         0.0809 
     93 H93        23.2671   29.2629   -2.9846 H         1 UNK         0.0809 
     94 H94        25.2604   27.4335   -3.0929 H         1 UNK         0.2990 
     95 H95        24.2659   24.7154   -3.2719 H         1 UNK         0.0690 
     96 H96        26.6003   24.4522   -4.2523 H         1 UNK         0.0788 
     97 H97        27.1793   25.6663   -3.1182 H         1 UNK         0.0788 
     98 H98        25.9833   26.0856   -4.3405 H         1 UNK         0.0788 
     99 H99        24.8072   22.9122   -2.1418 H         1 UNK         0.2993 
    100 H100       25.5699   21.6761   -0.2913 H         1 UNK         0.0949 
    101 H101       26.4248   21.0189   -2.5485 H         1 UNK         0.0767 
    102 H102       28.0790   21.3173   -2.0360 H         1 UNK         0.0767 
    103 H103       27.1467   20.0069   -1.3114 H         1 UNK         0.0767 
    104 H104       28.4173   21.6435    0.3614 H         1 UNK         0.3013 
    105 H105       29.0182   30.3875    1.7519 H         1 UNK         0.3121 
    106 H106       27.2966   30.0598    4.0607 H         1 UNK         0.0774 
    107 H107       28.5570   32.0017    4.9333 H         1 UNK         0.0815 
    108 H108       29.7474   31.8563    3.6532 H         1 UNK         0.0815 
    109 H109       28.0839   32.2904    3.2684 H         1 UNK         0.0815 
    110 H110       30.1954   28.5262    3.1826 H         1 UNK         0.2987 
    111 H111       31.4875   26.9825    4.0491 H         1 UNK         0.0949 
    112 H112       30.6906   25.6048    5.9235 H         1 UNK         0.0806 
    113 H113       29.3388   26.0060    4.8754 H         1 UNK         0.0806 
    114 H114       29.5433   26.8397    6.4133 H         1 UNK         0.0806 
    115 H115       30.7915   29.5049    6.4042 H         1 UNK         0.3010 
    116 H116       32.9334   28.9208    8.2182 H         1 UNK         0.0829 
    117 H117       31.2138   31.4346    7.8887 H         1 UNK         0.0813 
    118 H118       30.8264   30.0405    8.8962 H         1 UNK         0.0813 
    119 H119       32.2081   31.0495    9.2881 H         1 UNK         0.0813 
    120 H120       34.3657   28.8161    6.1046 H         1 UNK         0.3038 
    121 H121       36.2947   29.3142    5.1772 H         1 UNK         0.0769 
    122 H122       37.8821   30.9100    6.2197 H         1 UNK         0.0811 
    123 H123       37.1242   29.8966    7.4372 H         1 UNK         0.0811 
    124 H124       36.6065   31.5684    7.2309 H         1 UNK         0.0811 
    125 H125       34.5913   32.3729    5.7758 H         1 UNK         0.3204 
    126 H126       35.2383   33.4676    3.0809 H         1 UNK         0.0748 
    127 H127       33.9441   35.4395    3.9147 H         1 UNK         0.0771 
    128 H128       33.6170   34.6044    5.4286 H         1 UNK         0.0771 
    129 H129       35.2684   35.0454    4.9997 H         1 UNK         0.0771 
    130 H130       34.2644   31.3752    2.2940 H         1 UNK         0.2980 
    131 H131       31.5851   30.7113    2.7377 H         1 UNK         0.0545 
    132 H132       32.6788   33.1523    0.4429 H         1 UNK         0.3459 
    133 H133       31.1423   33.2834   -0.3763 H         1 UNK         0.3459 
    134 H134       31.8660   29.0314    0.9414 H         1 UNK         0.0616 
    135 H135       33.3466   29.8037    0.4202 H         1 UNK         0.0616 
    136 H136       34.7939   27.7772    0.5355 H         1 UNK         0.0634 
    137 H137       35.1386   26.8125    1.9483 H         1 UNK         0.0634 
@<TRIPOS>BOND
     1    1    2 1    
     2    1   72 1    
     3    1   73 1    
     4    1   74 1    
     5    2    3 2    
     6    2    4 am   BACKBONE|DICT|INTERRES
     7    4    5 1    
     8    4   75 1    
     9    5    6 1    
    10    5   35 1    
    11    5   76 1    
    12    6    7 1    
    13    6   77 1    
    14    6   78 1    
    15    7    8 1    
    16    8    9 1    
    17    8   79 1    
    18    8   80 1    
    19    9   10 ar   
    20    9   14 ar   
    21   10   11 ar   
    22   10   81 1    
    23   11   12 ar   
    24   11   71 1    
    25   12   13 ar   
    26   12   82 1    
    27   13   14 ar   
    28   13   15 1    
    29   14   83 1    
    30   15   16 1    
    31   15   84 1    
    32   15   85 1    
    33   16   17 1    
    34   17   18 1    
    35   17   86 1    
    36   17   87 1    
    37   18   19 1    
    38   18   37 1    
    39   18   88 1    
    40   19   20 am   BACKBONE|DICT|INTERRES
    41   19   89 1    
    42   20   21 2    
    43   20   22 1    
    44   22   23 1    
    45   22   24 1    
    46   22   90 1    
    47   23   91 1    
    48   23   92 1    
    49   23   93 1    
    50   24   25 am   BACKBONE|DICT|INTERRES
    51   24   94 1    
    52   25   26 2    
    53   25   27 1    
    54   27   28 1    
    55   27   29 1    
    56   27   95 1    
    57   28   96 1    
    58   28   97 1    
    59   28   98 1    
    60   29   30 am   BACKBONE|DICT|INTERRES
    61   29   99 1    
    62   30   31 2    
    63   30   32 1    
    64   32   33 1    
    65   32   34 1    
    66   32  100 1    
    67   33  101 1    
    68   33  102 1    
    69   33  103 1    
    70   34   35 am   BACKBONE|DICT|INTERRES
    71   34  104 1    
    72   35   36 2    
    73   37   38 2    
    74   37   39 am   BACKBONE|DICT|INTERRES
    75   39   40 1    
    76   39  105 1    
    77   40   41 1    
    78   40   42 1    
    79   40  106 1    
    80   41  107 1    
    81   41  108 1    
    82   41  109 1    
    83   42   43 2    
    84   42   44 am   BACKBONE|DICT|INTERRES
    85   44   45 1    
    86   44  110 1    
    87   45   46 1    
    88   45   47 1    
    89   45  111 1    
    90   46  112 1    
    91   46  113 1    
    92   46  114 1    
    93   47   48 2    
    94   47   49 am   BACKBONE|DICT|INTERRES
    95   49   50 1    
    96   49  115 1    
    97   50   51 1    
    98   50   52 1    
    99   50  116 1    
   100   51  117 1    
   101   51  118 1    
   102   51  119 1    
   103   52   53 2    
   104   52   54 am   BACKBONE|DICT|INTERRES
   105   54   55 1    
   106   54  120 1    
   107   55   56 1    
   108   55   57 1    
   109   55  121 1    
   110   56  122 1    
   111   56  123 1    
   112   56  124 1    
   113   57   58 2    
   114   57   59 am   BACKBONE|DICT|INTERRES
   115   59   60 1    
   116   59  125 1    
   117   60   61 1    
   118   60   62 1    
   119   60  126 1    
   120   61  127 1    
   121   61  128 1    
   122   61  129 1    
   123   62   63 2    
   124   62   64 am   BACKBONE|DICT|INTERRES
   125   64   65 1    
   126   64  130 1    
   127   65   66 1    
   128   65   69 1    
   129   65  131 1    
   130   66   67 am   BACKBONE|DICT|INTERRES
   131   66   68 2    
   132   67  132 1    
   133   67  133 1    
   134   69   70 1    
   135   69  134 1    
   136   69  135 1    
   137   70   71 1    
   138   71  136 1    
   139   71  137 1    
@<TRIPOS>SUBSTRUCTURE
     1 UNK         1 GROUP             0       ****    0 ROOT    
