@<TRIPOS>MOLECULE
3R136
137   139    1
SMALL
USER_CHARGES


@<TRIPOS>ATOM
      1 CA         33.4520   23.9837   -1.1238 C.3       0 UNK        -0.1979 
      2 C          32.0211   23.6566   -0.7224 C.2       0 UNK         0.4864 
      3 O          31.5539   22.5472   -0.9832 O.2       0 UNK        -0.5359 
      4 N          31.3321   24.6150   -0.0877 N.am      1 UNK        -0.4318 
      5 CA         29.9371   24.5309    0.3559 C.3       1 UNK         0.0824 
      6 C6         29.7193   23.4619    1.4657 C.3       12 UNK        -0.0944 
      7 S7         28.2409   23.8061    2.4793 S.3       12 UNK        -0.2672 
      8 C8         28.6490   22.9686    4.0433 C.3       12 UNK         0.0333 
      9 C9         29.7034   23.7245    4.8392 C.ar      12 UNK        -0.0807 
     10 C10        31.0031   23.2211    4.9488 C.ar      12 UNK        -0.0894 
     11 C11        31.9694   23.9018    5.6959 C.ar      12 UNK        -0.0804 
     12 C12        31.6337   25.1141    6.3085 C.ar      12 UNK        -0.0824 
     13 C13        30.3365   25.6293    6.2047 C.ar      12 UNK        -0.0762 
     14 C14        29.3712   24.9173    5.4876 C.ar      12 UNK        -0.0782 
     15 C15        29.9748   26.9407    6.8890 C.3       12 UNK         0.0230 
     16 S16        30.2052   28.3708    5.7834 S.3       12 UNK        -0.2608 
     17 C17        28.5902   28.5236    4.9501 C.3       12 UNK        -0.0989 
     18 CA         28.5139   27.7660    3.5964 C.3       5 UNK         0.0716 
     19 N          27.1512   27.2969    3.3130 N.am      5 UNK        -0.4135 
     20 C          26.1023   28.0613    2.9718 C.2       4 UNK         0.5031 
     21 O          26.1381   29.2915    2.9028 O.2       4 UNK        -0.5229 
     22 CA         24.8218   27.3095    2.5580 C.3       4 UNK         0.0329 
     23 CB         23.5632   28.0207    3.0850 C.3       4 UNK        -0.2001 
     24 N          24.6979   27.1347    1.1030 N.am      4 UNK        -0.4303 
     25 C          25.6180   26.5912    0.2940 C.2       3 UNK         0.5044 
     26 O          26.7314   26.2226    0.6739 O.2       3 UNK        -0.5152 
     27 CA         25.2527   26.4435   -1.1924 C.3       3 UNK         0.0319 
     28 CB         25.4720   27.7653   -1.9463 C.3       3 UNK        -0.2001 
     29 N          26.1012   25.4066   -1.7824 N.am      3 UNK        -0.4354 
     30 C          25.8617   24.0943   -1.6770 C.2       2 UNK         0.4964 
     31 O          24.7711   23.6184   -1.3586 O.2       2 UNK        -0.5047 
     32 CA         27.0585   23.1534   -1.8953 C.3       2 UNK         0.0288 
     33 CB         27.5481   23.1537   -3.3583 C.3       2 UNK        -0.2113 
     34 N          28.1435   23.4026   -0.9321 N.am      2 UNK        -0.4145 
     35 C          28.9817   24.4494   -0.8595 C.2       1 UNK         0.5006 
     36 O          29.0086   25.3614   -1.6903 O.2       1 UNK        -0.5103 
     37 C          29.1282   28.5247    2.3939 C.2       5 UNK         0.5055 
     38 O          29.8407   29.5156    2.5741 O.2       5 UNK        -0.5220 
     39 N          28.7833   28.0671    1.1778 N.am      6 UNK        -0.4450 
     40 CA         29.0755   28.6430   -0.1424 C.3       6 UNK         0.0367 
     41 CB         30.5908   28.6338   -0.4298 C.3       6 UNK        -0.1929 
     42 C          28.4629   30.0386   -0.3796 C.2       6 UNK         0.5070 
     43 O          28.7716   30.6578   -1.3976 O.2       6 UNK        -0.5237 
     44 N          27.6458   30.5293    0.5682 N.am      7 UNK        -0.4739 
     45 CA         27.1629   31.9091    0.7060 C.3       7 UNK         0.0276 
     46 CB         26.1644   32.2533   -0.4191 C.3       7 UNK        -0.1927 
     47 C          28.3049   32.9442    0.8322 C.2       7 UNK         0.5013 
     48 O          28.0931   34.1204    0.5311 O.2       7 UNK        -0.5193 
     49 N          29.4956   32.4927    1.2559 N.am      8 UNK        -0.4253 
     50 CA         30.7385   33.2684    1.2378 C.3       8 UNK         0.0242 
     51 CB         31.3746   33.1793   -0.1650 C.3       8 UNK        -0.2000 
     52 C          31.7198   32.8469    2.3459 C.2       8 UNK         0.4948 
     53 O          32.9060   33.1612    2.2386 O.2       8 UNK        -0.5275 
     54 N          31.2185   32.1632    3.3866 N.am      9 UNK        -0.4246 
     55 CA         31.9536   31.6465    4.5475 C.3       9 UNK         0.0261 
     56 CB         32.5119   32.7996    5.4102 C.3       9 UNK        -0.1959 
     57 C          33.0262   30.6117    4.1544 C.2       9 UNK         0.5033 
     58 O          34.2220   30.8453    4.3522 O.2       9 UNK        -0.5390 
     59 N          32.5662   29.4834    3.5965 N.am      10 UNK        -0.4215 
     60 CA         33.3678   28.2972    3.2761 C.3       10 UNK         0.0240 
     61 CB         32.4510   27.2032    2.7012 C.3       10 UNK        -0.1982 
     62 C          34.1359   27.7283    4.4837 C.2       10 UNK         0.4970 
     63 O          33.6920   27.8612    5.6261 O.2       10 UNK        -0.4916 
     64 N          35.2608   27.0687    4.1841 N.am      11 UNK        -0.4279 
     65 CA         36.1361   26.3655    5.1387 C.3       11 UNK         0.1003 
     66 C          36.9316   27.2897    6.1117 C.2       11 UNK         0.5709 
     67 N          36.9214   28.6069    5.9429 N.am      11 UNK        -0.7358 
     68 O          37.6060   26.8022    7.0162 O.2       11 UNK        -0.4999 
     69 C69        35.4191   25.2020    5.8851 C.3       12 UNK        -0.0954 
     70 S70        34.5934   24.0204    4.7634 S.3       12 UNK        -0.2268 
     71 C71        33.3539   23.2923    5.8784 C.3       12 UNK         0.0203 
     72 H72        33.5653   23.9049   -2.2048 H         1 UNK         0.0888 
     73 H73        33.7411   24.9913   -0.8252 H         1 UNK         0.0888 
     74 H74        34.1419   23.2814   -0.6566 H         1 UNK         0.0888 
     75 H75        31.7746   25.5096    0.0605 H         1 UNK         0.3017 
     76 H76        29.7381   25.5022    0.8085 H         1 UNK         0.0873 
     77 H77        30.5826   23.4683    2.1321 H         1 UNK         0.0745 
     78 H78        29.6724   22.4487    1.0635 H         1 UNK         0.0745 
     79 H79        28.9720   21.9477    3.8335 H         1 UNK         0.0705 
     80 H80        27.7415   22.8835    4.6428 H         1 UNK         0.0705 
     81 H81        31.2588   22.2875    4.4664 H         1 UNK         0.1334 
     82 H82        32.3784   25.6547    6.8759 H         1 UNK         0.1417 
     83 H83        28.3621   25.2997    5.4198 H         1 UNK         0.1562 
     84 H84        30.6101   27.0812    7.7649 H         1 UNK         0.0748 
     85 H85        28.9517   26.9092    7.2658 H         1 UNK         0.0748 
     86 H86        28.3586   29.5821    4.8169 H         1 UNK         0.0940 
     87 H87        27.8264   28.1522    5.6346 H         1 UNK         0.0940 
     88 H88        29.1130   26.8602    3.6750 H         1 UNK         0.0703 
     89 H89        27.0420   26.2938    3.2422 H         1 UNK         0.3081 
     90 H90        24.8525   26.3139    3.0055 H         1 UNK         0.0719 
     91 H91        22.6642   27.4349    2.8923 H         1 UNK         0.0809 
     92 H92        23.4303   29.0013    2.6257 H         1 UNK         0.0809 
     93 H93        23.6235   28.1729    4.1636 H         1 UNK         0.0809 
     94 H94        23.8244   27.4359    0.6956 H         1 UNK         0.2990 
     95 H95        24.2021   26.1567   -1.2739 H         1 UNK         0.0690 
     96 H96        25.1799   27.6730   -2.9925 H         1 UNK         0.0788 
     97 H97        26.5142   28.0814   -1.9211 H         1 UNK         0.0788 
     98 H98        24.8763   28.5706   -1.5145 H         1 UNK         0.0788 
     99 H99        27.0675   25.6671   -1.9549 H         1 UNK         0.2993 
    100 H100       26.7039   22.1443   -1.6784 H         1 UNK         0.0949 
    101 H101       27.8807   24.1381   -3.6876 H         1 UNK         0.0767 
    102 H102       28.3759   22.4581   -3.4969 H         1 UNK         0.0767 
    103 H103       26.7479   22.8443   -4.0319 H         1 UNK         0.0767 
    104 H104       28.1847   22.7441   -0.1665 H         1 UNK         0.3013 
    105 H105       28.1267   27.2867    1.1445 H         1 UNK         0.3121 
    106 H106       28.6041   27.9802   -0.8680 H         1 UNK         0.0774 
    107 H107       30.7998   28.9785   -1.4432 H         1 UNK         0.0815 
    108 H108       31.1408   29.2845    0.2504 H         1 UNK         0.0815 
    109 H109       30.9994   27.6280   -0.3520 H         1 UNK         0.0815 
    110 H110       27.4167   29.9294    1.3538 H         1 UNK         0.2987 
    111 H111       26.6202   31.9450    1.6521 H         1 UNK         0.0949 
    112 H112       26.6536   32.3099   -1.3919 H         1 UNK         0.0806 
    113 H113       25.3702   31.5097   -0.4849 H         1 UNK         0.0806 
    114 H114       25.6889   33.2182   -0.2390 H         1 UNK         0.0806 
    115 H115       29.5812   31.5079    1.4817 H         1 UNK         0.3010 
    116 H116       30.5035   34.3155    1.4402 H         1 UNK         0.0829 
    117 H117       30.6909   33.5353   -0.9359 H         1 UNK         0.0813 
    118 H118       32.2768   33.7885   -0.2331 H         1 UNK         0.0813 
    119 H119       31.6500   32.1534   -0.4128 H         1 UNK         0.0813 
    120 H120       30.2352   31.9320    3.3659 H         1 UNK         0.3038 
    121 H121       31.2228   31.1162    5.1593 H         1 UNK         0.0769 
    122 H122       33.2687   33.3786    4.8804 H         1 UNK         0.0811 
    123 H123       31.7211   33.4832    5.7186 H         1 UNK         0.0811 
    124 H124       32.9784   32.4125    6.3169 H         1 UNK         0.0811 
    125 H125       31.5651   29.4105    3.4353 H         1 UNK         0.3204 
    126 H126       34.0887   28.5937    2.5117 H         1 UNK         0.0748 
    127 H127       33.0213   26.3172    2.4184 H         1 UNK         0.0771 
    128 H128       31.7038   26.8838    3.4295 H         1 UNK         0.0771 
    129 H129       31.9310   27.5494    1.8119 H         1 UNK         0.0771 
    130 H130       35.5511   27.0164    3.2188 H         1 UNK         0.2980 
    131 H131       36.9081   25.9097    4.5180 H         1 UNK         0.0545 
    132 H132       36.3543   29.0271    5.2228 H         1 UNK         0.3459 
    133 H133       37.4517   29.1886    6.5719 H         1 UNK         0.3459 
    134 H134       36.1356   24.6331    6.4801 H         1 UNK         0.0616 
    135 H135       34.6912   25.6000    6.5922 H         1 UNK         0.0616 
    136 H136       33.6727   23.3955    6.9166 H         1 UNK         0.0634 
    137 H137       33.3152   22.2188    5.6874 H         1 UNK         0.0634 
@<TRIPOS>BOND
     1    1    2 1    
     2    1   72 1    
     3    1   73 1    
     4    1   74 1    
     5    2    3 2    
     6    2    4 am   BACKBONE|DICT|INTERRES
     7    4    5 1    
     8    4   75 1    
     9    5    6 1    
    10    5   35 1    
    11    5   76 1    
    12    6    7 1    
    13    6   77 1    
    14    6   78 1    
    15    7    8 1    
    16    8    9 1    
    17    8   79 1    
    18    8   80 1    
    19    9   10 ar   
    20    9   14 ar   
    21   10   11 ar   
    22   10   81 1    
    23   11   12 ar   
    24   11   71 1    
    25   12   13 ar   
    26   12   82 1    
    27   13   14 ar   
    28   13   15 1    
    29   14   83 1    
    30   15   16 1    
    31   15   84 1    
    32   15   85 1    
    33   16   17 1    
    34   17   18 1    
    35   17   86 1    
    36   17   87 1    
    37   18   19 1    
    38   18   37 1    
    39   18   88 1    
    40   19   20 am   BACKBONE|DICT|INTERRES
    41   19   89 1    
    42   20   21 2    
    43   20   22 1    
    44   22   23 1    
    45   22   24 1    
    46   22   90 1    
    47   23   91 1    
    48   23   92 1    
    49   23   93 1    
    50   24   25 am   BACKBONE|DICT|INTERRES
    51   24   94 1    
    52   25   26 2    
    53   25   27 1    
    54   27   28 1    
    55   27   29 1    
    56   27   95 1    
    57   28   96 1    
    58   28   97 1    
    59   28   98 1    
    60   29   30 am   BACKBONE|DICT|INTERRES
    61   29   99 1    
    62   30   31 2    
    63   30   32 1    
    64   32   33 1    
    65   32   34 1    
    66   32  100 1    
    67   33  101 1    
    68   33  102 1    
    69   33  103 1    
    70   34   35 am   BACKBONE|DICT|INTERRES
    71   34  104 1    
    72   35   36 2    
    73   37   38 2    
    74   37   39 am   BACKBONE|DICT|INTERRES
    75   39   40 1    
    76   39  105 1    
    77   40   41 1    
    78   40   42 1    
    79   40  106 1    
    80   41  107 1    
    81   41  108 1    
    82   41  109 1    
    83   42   43 2    
    84   42   44 am   BACKBONE|DICT|INTERRES
    85   44   45 1    
    86   44  110 1    
    87   45   46 1    
    88   45   47 1    
    89   45  111 1    
    90   46  112 1    
    91   46  113 1    
    92   46  114 1    
    93   47   48 2    
    94   47   49 am   BACKBONE|DICT|INTERRES
    95   49   50 1    
    96   49  115 1    
    97   50   51 1    
    98   50   52 1    
    99   50  116 1    
   100   51  117 1    
   101   51  118 1    
   102   51  119 1    
   103   52   53 2    
   104   52   54 am   BACKBONE|DICT|INTERRES
   105   54   55 1    
   106   54  120 1    
   107   55   56 1    
   108   55   57 1    
   109   55  121 1    
   110   56  122 1    
   111   56  123 1    
   112   56  124 1    
   113   57   58 2    
   114   57   59 am   BACKBONE|DICT|INTERRES
   115   59   60 1    
   116   59  125 1    
   117   60   61 1    
   118   60   62 1    
   119   60  126 1    
   120   61  127 1    
   121   61  128 1    
   122   61  129 1    
   123   62   63 2    
   124   62   64 am   BACKBONE|DICT|INTERRES
   125   64   65 1    
   126   64  130 1    
   127   65   66 1    
   128   65   69 1    
   129   65  131 1    
   130   66   67 am   BACKBONE|DICT|INTERRES
   131   66   68 2    
   132   67  132 1    
   133   67  133 1    
   134   69   70 1    
   135   69  134 1    
   136   69  135 1    
   137   70   71 1    
   138   71  136 1    
   139   71  137 1    
@<TRIPOS>SUBSTRUCTURE
     1 UNK         1 GROUP             0       ****    0 ROOT    
