@<TRIPOS>MOLECULE
3R136
137   139    1
SMALL
USER_CHARGES


@<TRIPOS>ATOM
      1 CA         28.8647   19.4199    0.7221 C.3       0 UNK        -0.1979 
      2 C          28.3125   20.1123   -0.5154 C.2       0 UNK         0.4864 
      3 O          27.5694   19.4974   -1.2823 O.2       0 UNK        -0.5359 
      4 N          28.6769   21.3841   -0.7175 N.am      1 UNK        -0.4318 
      5 CA         28.1767   22.2437   -1.7933 C.3       1 UNK         0.0824 
      6 C6         29.1262   23.4440   -2.0590 C.3       12 UNK        -0.0944 
      7 S7         29.5436   24.4233   -0.5708 S.3       12 UNK        -0.2672 
      8 C8         31.2953   23.9728   -0.3608 C.3       12 UNK         0.0333 
      9 C9         31.8195   24.4508    0.9818 C.ar      12 UNK        -0.0807 
     10 C10        32.5639   25.6298    1.0796 C.ar      12 UNK        -0.0894 
     11 C11        33.0184   26.0947    2.3194 C.ar      12 UNK        -0.0804 
     12 C12        32.7261   25.3435    3.4673 C.ar      12 UNK        -0.0824 
     13 C13        31.9670   24.1726    3.3831 C.ar      12 UNK        -0.0762 
     14 C14        31.5354   23.7190    2.1356 C.ar      12 UNK        -0.0782 
     15 C15        31.5458   23.4353    4.6448 C.3       12 UNK         0.0230 
     16 S16        29.7475   23.5753    4.9219 S.3       12 UNK        -0.2608 
     17 C17        29.5183   25.3849    5.0620 C.3       12 UNK        -0.0989 
     18 CA         29.1130   26.0671    3.7200 C.3       5 UNK         0.0716 
     19 N          27.9516   25.4682    3.0530 N.am      5 UNK        -0.4135 
     20 C          26.7163   25.3304    3.5503 C.2       4 UNK         0.5031 
     21 O          26.3765   25.7055    4.6739 O.2       4 UNK        -0.5229 
     22 CA         25.6860   24.6936    2.5954 C.3       4 UNK         0.0329 
     23 CB         24.2386   24.7959    3.1211 C.3       4 UNK        -0.2001 
     24 N          25.7672   25.2166    1.2232 N.am      4 UNK        -0.4303 
     25 C          25.6667   26.5032    0.8451 C.2       3 UNK         0.5044 
     26 O          25.5722   27.4351    1.6420 O.2       3 UNK        -0.5152 
     27 CA         25.7091   26.8349   -0.6602 C.3       3 UNK         0.0319 
     28 CB         27.0011   27.5936   -1.0025 C.3       3 UNK        -0.2001 
     29 N          25.6067   25.6621   -1.5291 N.am      3 UNK        -0.4354 
     30 C          24.4964   24.9363   -1.7253 C.2       2 UNK         0.4964 
     31 O          23.3913   25.2425   -1.2773 O.2       2 UNK        -0.5047 
     32 CA         24.6474   23.6300   -2.5309 C.3       2 UNK         0.0288 
     33 CB         24.1355   23.8234   -3.9679 C.3       2 UNK        -0.2113 
     34 N          26.0168   23.0973   -2.5763 N.am      2 UNK        -0.4145 
     35 C          26.7340   22.7112   -1.5098 C.2       1 UNK         0.5006 
     36 O          26.3163   22.7749   -0.3492 O.2       1 UNK        -0.5103 
     37 C          29.0483   27.6074    3.8412 C.2       5 UNK         0.5055 
     38 O          29.9383   28.1859    4.4617 O.2       5 UNK        -0.5220 
     39 N          28.0669   28.2698    3.2082 N.am      6 UNK        -0.4450 
     40 CA         27.9852   29.7343    3.1166 C.3       6 UNK         0.0367 
     41 CB         26.5134   30.1715    3.2265 C.3       6 UNK        -0.1929 
     42 C          28.6423   30.2771    1.8301 C.2       6 UNK         0.5070 
     43 O          28.3762   31.4180    1.4508 O.2       6 UNK        -0.5237 
     44 N          29.4719   29.4582    1.1655 N.am      7 UNK        -0.4739 
     45 CA         30.1421   29.7679   -0.1026 C.3       7 UNK         0.0276 
     46 CB         30.7998   28.4889   -0.6441 C.3       7 UNK        -0.1927 
     47 C          31.1943   30.8881   -0.0094 C.2       7 UNK         0.5013 
     48 O          31.4755   31.5304   -1.0222 O.2       7 UNK        -0.5193 
     49 N          31.7635   31.0940    1.1828 N.am      8 UNK        -0.4253 
     50 CA         32.7522   32.1229    1.4816 C.3       8 UNK         0.0242 
     51 CB         34.1680   31.5662    1.2459 C.3       8 UNK        -0.2000 
     52 C          32.5733   32.5428    2.9405 C.2       8 UNK         0.4948 
     53 O          32.2150   31.7028    3.7689 O.2       8 UNK        -0.5275 
     54 N          32.8735   33.8133    3.2433 N.am      9 UNK        -0.4246 
     55 CA         32.7901   34.3904    4.5916 C.3       9 UNK         0.0261 
     56 CB         33.0646   35.9014    4.5237 C.3       9 UNK        -0.1959 
     57 C          33.7281   33.7160    5.6085 C.2       9 UNK         0.5033 
     58 O          33.3691   33.6022    6.7811 O.2       9 UNK        -0.5390 
     59 N          34.8854   33.2345    5.1316 N.am      10 UNK        -0.4215 
     60 CA         35.8614   32.4573    5.9011 C.3       10 UNK         0.0240 
     61 CB         37.1209   32.2440    5.0453 C.3       10 UNK        -0.1982 
     62 C          35.3235   31.1051    6.4082 C.2       10 UNK         0.4970 
     63 O          35.8318   30.6027    7.4114 O.2       10 UNK        -0.4916 
     64 N          34.3132   30.5515    5.7251 N.am      11 UNK        -0.4279 
     65 CA         33.5965   29.3352    6.1305 C.3       11 UNK         0.1003 
     66 C          32.4169   29.6081    7.1108 C.2       11 UNK         0.5709 
     67 N          32.0992   30.8511    7.4594 N.am      11 UNK        -0.7358 
     68 O          31.7976   28.6664    7.6001 O.2       11 UNK        -0.4999 
     69 C69        33.1487   28.5068    4.8984 C.3       12 UNK        -0.0954 
     70 S70        34.5698   27.8716    3.9435 S.3       12 UNK        -0.2268 
     71 C71        33.7890   27.4201    2.3537 C.3       12 UNK         0.0203 
     72 H72        29.5171   20.0749    1.2995 H         1 UNK         0.0888 
     73 H73        28.0476   19.1007    1.3685 H         1 UNK         0.0888 
     74 H74        29.4375   18.5384    0.4352 H         1 UNK         0.0888 
     75 H75        29.2479   21.8551   -0.0318 H         1 UNK         0.3017 
     76 H76        28.1432   21.6429   -2.7052 H         1 UNK         0.0873 
     77 H77        28.7039   24.1193   -2.8054 H         1 UNK         0.0745 
     78 H78        30.0479   23.0728   -2.5098 H         1 UNK         0.0745 
     79 H79        31.4109   22.8901   -0.4316 H         1 UNK         0.0705 
     80 H80        31.8787   24.4011   -1.1775 H         1 UNK         0.0705 
     81 H81        32.7837   26.1927    0.1832 H         1 UNK         0.1334 
     82 H82        33.0583   25.6702    4.4401 H         1 UNK         0.1417 
     83 H83        30.9382   22.8197    2.0712 H         1 UNK         0.1562 
     84 H84        32.0763   23.8153    5.5194 H         1 UNK         0.0748 
     85 H85        31.8128   22.3814    4.5553 H         1 UNK         0.0748 
     86 H86        30.4410   25.8192    5.4518 H         1 UNK         0.0940 
     87 H87        28.7628   25.5728    5.8263 H         1 UNK         0.0940 
     88 H88        29.9283   25.9064    3.0171 H         1 UNK         0.0703 
     89 H89        28.1204   25.1270    2.1171 H         1 UNK         0.3081 
     90 H90        25.9413   23.6344    2.5345 H         1 UNK         0.0719 
     91 H91        23.5362   24.3109    2.4432 H         1 UNK         0.0809 
     92 H92        23.9255   25.8336    3.2422 H         1 UNK         0.0809 
     93 H93        24.1392   24.3100    4.0924 H         1 UNK         0.0809 
     94 H94        25.8877   24.5084    0.5044 H         1 UNK         0.2990 
     95 H95        24.8615   27.4907   -0.8698 H         1 UNK         0.0690 
     96 H96        27.0240   27.8914   -2.0508 H         1 UNK         0.0788 
     97 H97        27.8824   26.9843   -0.8056 H         1 UNK         0.0788 
     98 H98        27.0918   28.5036   -0.4079 H         1 UNK         0.0788 
     99 H99        26.4654   25.3378   -1.9481 H         1 UNK         0.2993 
    100 H100       24.0211   22.8814   -2.0406 H         1 UNK         0.0949 
    101 H101       23.1079   24.1902   -3.9709 H         1 UNK         0.0767 
    102 H102       24.7404   24.5452   -4.5184 H         1 UNK         0.0767 
    103 H103       24.1425   22.8847   -4.5224 H         1 UNK         0.0767 
    104 H104       26.4335   23.0214   -3.4936 H         1 UNK         0.3013 
    105 H105       27.3390   27.7539    2.7239 H         1 UNK         0.3121 
    106 H106       28.5194   30.1852    3.9557 H         1 UNK         0.0774 
    107 H107       26.4365   31.2537    3.3374 H         1 UNK         0.0815 
    108 H108       25.9421   29.8990    2.3391 H         1 UNK         0.0815 
    109 H109       26.0264   29.7227    4.0923 H         1 UNK         0.0815 
    110 H110       29.6404   28.5435    1.5553 H         1 UNK         0.2987 
    111 H111       29.3782   30.0934   -0.8122 H         1 UNK         0.0949 
    112 H112       31.6039   28.1547    0.0095 H         1 UNK         0.0806 
    113 H113       30.0875   27.6716   -0.7446 H         1 UNK         0.0806 
    114 H114       31.2338   28.6609   -1.6300 H         1 UNK         0.0806 
    115 H115       31.4397   30.5723    1.9877 H         1 UNK         0.3010 
    116 H116       32.5843   32.9922    0.8418 H         1 UNK         0.0829 
    117 H117       34.3033   31.2542    0.2102 H         1 UNK         0.0813 
    118 H118       34.9278   32.3193    1.4578 H         1 UNK         0.0813 
    119 H119       34.3734   30.7044    1.8831 H         1 UNK         0.0813 
    120 H120       33.1663   34.4354    2.5027 H         1 UNK         0.3038 
    121 H121       31.7681   34.2447    4.9483 H         1 UNK         0.0769 
    122 H122       32.9870   36.3562    5.5124 H         1 UNK         0.0811 
    123 H123       32.3447   36.4077    3.8803 H         1 UNK         0.0811 
    124 H124       34.0646   36.1158    4.1445 H         1 UNK         0.0811 
    125 H125       35.0924   33.3832    4.1550 H         1 UNK         0.3204 
    126 H126       36.1365   33.0471    6.7781 H         1 UNK         0.0748 
    127 H127       37.8816   31.6935    5.6009 H         1 UNK         0.0771 
    128 H128       36.9028   31.6743    4.1407 H         1 UNK         0.0771 
    129 H129       37.5654   33.1938    4.7472 H         1 UNK         0.0771 
    130 H130       33.9065   31.0473    4.9421 H         1 UNK         0.2980 
    131 H131       34.2859   28.7058    6.6963 H         1 UNK         0.0545 
    132 H132       32.6100   31.6465    7.0978 H         1 UNK         0.3459 
    133 H133       31.3399   30.9969    8.1048 H         1 UNK         0.3459 
    134 H134       32.5159   29.1081    4.2448 H         1 UNK         0.0616 
    135 H135       32.5396   27.6595    5.2124 H         1 UNK         0.0616 
    136 H136       33.1234   28.2281    2.0470 H         1 UNK         0.0634 
    137 H137       34.5809   27.3766    1.6048 H         1 UNK         0.0634 
@<TRIPOS>BOND
     1    1    2 1    
     2    1   72 1    
     3    1   73 1    
     4    1   74 1    
     5    2    3 2    
     6    2    4 am   BACKBONE|DICT|INTERRES
     7    4    5 1    
     8    4   75 1    
     9    5    6 1    
    10    5   35 1    
    11    5   76 1    
    12    6    7 1    
    13    6   77 1    
    14    6   78 1    
    15    7    8 1    
    16    8    9 1    
    17    8   79 1    
    18    8   80 1    
    19    9   10 ar   
    20    9   14 ar   
    21   10   11 ar   
    22   10   81 1    
    23   11   12 ar   
    24   11   71 1    
    25   12   13 ar   
    26   12   82 1    
    27   13   14 ar   
    28   13   15 1    
    29   14   83 1    
    30   15   16 1    
    31   15   84 1    
    32   15   85 1    
    33   16   17 1    
    34   17   18 1    
    35   17   86 1    
    36   17   87 1    
    37   18   19 1    
    38   18   37 1    
    39   18   88 1    
    40   19   20 am   BACKBONE|DICT|INTERRES
    41   19   89 1    
    42   20   21 2    
    43   20   22 1    
    44   22   23 1    
    45   22   24 1    
    46   22   90 1    
    47   23   91 1    
    48   23   92 1    
    49   23   93 1    
    50   24   25 am   BACKBONE|DICT|INTERRES
    51   24   94 1    
    52   25   26 2    
    53   25   27 1    
    54   27   28 1    
    55   27   29 1    
    56   27   95 1    
    57   28   96 1    
    58   28   97 1    
    59   28   98 1    
    60   29   30 am   BACKBONE|DICT|INTERRES
    61   29   99 1    
    62   30   31 2    
    63   30   32 1    
    64   32   33 1    
    65   32   34 1    
    66   32  100 1    
    67   33  101 1    
    68   33  102 1    
    69   33  103 1    
    70   34   35 am   BACKBONE|DICT|INTERRES
    71   34  104 1    
    72   35   36 2    
    73   37   38 2    
    74   37   39 am   BACKBONE|DICT|INTERRES
    75   39   40 1    
    76   39  105 1    
    77   40   41 1    
    78   40   42 1    
    79   40  106 1    
    80   41  107 1    
    81   41  108 1    
    82   41  109 1    
    83   42   43 2    
    84   42   44 am   BACKBONE|DICT|INTERRES
    85   44   45 1    
    86   44  110 1    
    87   45   46 1    
    88   45   47 1    
    89   45  111 1    
    90   46  112 1    
    91   46  113 1    
    92   46  114 1    
    93   47   48 2    
    94   47   49 am   BACKBONE|DICT|INTERRES
    95   49   50 1    
    96   49  115 1    
    97   50   51 1    
    98   50   52 1    
    99   50  116 1    
   100   51  117 1    
   101   51  118 1    
   102   51  119 1    
   103   52   53 2    
   104   52   54 am   BACKBONE|DICT|INTERRES
   105   54   55 1    
   106   54  120 1    
   107   55   56 1    
   108   55   57 1    
   109   55  121 1    
   110   56  122 1    
   111   56  123 1    
   112   56  124 1    
   113   57   58 2    
   114   57   59 am   BACKBONE|DICT|INTERRES
   115   59   60 1    
   116   59  125 1    
   117   60   61 1    
   118   60   62 1    
   119   60  126 1    
   120   61  127 1    
   121   61  128 1    
   122   61  129 1    
   123   62   63 2    
   124   62   64 am   BACKBONE|DICT|INTERRES
   125   64   65 1    
   126   64  130 1    
   127   65   66 1    
   128   65   69 1    
   129   65  131 1    
   130   66   67 am   BACKBONE|DICT|INTERRES
   131   66   68 2    
   132   67  132 1    
   133   67  133 1    
   134   69   70 1    
   135   69  134 1    
   136   69  135 1    
   137   70   71 1    
   138   71  136 1    
   139   71  137 1    
@<TRIPOS>SUBSTRUCTURE
     1 UNK         1 GROUP             0       ****    0 ROOT    
