@<TRIPOS>MOLECULE
3R136
137   139    1
SMALL
USER_CHARGES


@<TRIPOS>ATOM
      1 CA         31.9658   23.5640   -3.8860 C.3       0 UNK        -0.1979 
      2 C          30.9310   24.5609   -3.3867 C.2       0 UNK         0.4864 
      3 O          30.3334   25.2805   -4.1891 O.2       0 UNK        -0.5359 
      4 N          30.6991   24.6025   -2.0684 N.am      1 UNK        -0.4318 
      5 CA         29.7683   25.5129   -1.3883 C.3       1 UNK         0.0824 
      6 C6         30.1436   25.7153    0.1046 C.3       12 UNK        -0.0944 
      7 S7         31.8864   26.1625    0.4161 S.3       12 UNK        -0.2672 
      8 C8         32.5438   24.6383    1.1772 C.3       12 UNK         0.0333 
      9 C9         32.0138   24.4160    2.5893 C.ar      12 UNK        -0.0807 
     10 C10        32.6739   24.9741    3.6889 C.ar      12 UNK        -0.0894 
     11 C11        32.1950   24.7610    4.9862 C.ar      12 UNK        -0.0804 
     12 C12        31.0222   24.0245    5.1777 C.ar      12 UNK        -0.0824 
     13 C13        30.3499   23.4690    4.0856 C.ar      12 UNK        -0.0762 
     14 C14        30.8726   23.6358    2.8017 C.ar      12 UNK        -0.0782 
     15 C15        29.0562   22.6910    4.2825 C.3       12 UNK         0.0230 
     16 S16        27.6249   23.5529    3.5474 S.3       12 UNK        -0.2608 
     17 C17        27.5687   25.0897    4.5294 C.3       12 UNK        -0.0989 
     18 CA         28.0005   26.3312    3.7093 C.3       5 UNK         0.0716 
     19 N          27.0773   26.6117    2.6021 N.am      5 UNK        -0.4135 
     20 C          27.1958   27.6229    1.7292 C.2       4 UNK         0.5031 
     21 O          28.1638   28.3892    1.7011 O.2       4 UNK        -0.5229 
     22 CA         26.0431   27.8218    0.7331 C.3       4 UNK         0.0329 
     23 CB         26.4585   28.6245   -0.5145 C.3       4 UNK        -0.2001 
     24 N          25.4678   26.5460    0.3082 N.am      4 UNK        -0.4303 
     25 C          24.1673   26.3399    0.0585 C.2       3 UNK         0.5044 
     26 O          23.2885   27.1700    0.2998 O.2       3 UNK        -0.5152 
     27 CA         23.7854   24.9859   -0.5802 C.3       3 UNK         0.0319 
     28 CB         22.4263   25.0304   -1.3113 C.3       3 UNK        -0.2001 
     29 N          24.8293   24.4426   -1.4604 N.am      3 UNK        -0.4354 
     30 C          25.3603   25.0181   -2.5514 C.2       2 UNK         0.4964 
     31 O          24.9846   26.0888   -3.0325 O.2       2 UNK        -0.5047 
     32 CA         26.5554   24.2798   -3.1820 C.3       2 UNK         0.0288 
     33 CB         26.4647   24.2680   -4.7183 C.3       2 UNK        -0.2113 
     34 N          27.8510   24.8446   -2.7873 N.am      2 UNK        -0.4145 
     35 C          28.3041   25.0297   -1.5385 C.2       1 UNK         0.5006 
     36 O          27.6313   24.7954   -0.5314 O.2       1 UNK        -0.5103 
     37 C          28.1197   27.5623    4.6304 C.2       5 UNK         0.5055 
     38 O          27.0949   28.0615    5.1009 O.2       5 UNK        -0.5220 
     39 N          29.3567   28.0356    4.8334 N.am      6 UNK        -0.4450 
     40 CA         29.7375   29.2472    5.5735 C.3       6 UNK         0.0367 
     41 CB         29.2792   29.1790    7.0470 C.3       6 UNK        -0.1929 
     42 C          29.3273   30.5737    4.8966 C.2       6 UNK         0.5070 
     43 O          29.4800   31.6249    5.5214 O.2       6 UNK        -0.5237 
     44 N          28.8338   30.5269    3.6501 N.am      7 UNK        -0.4739 
     45 CA         28.4332   31.6977    2.8660 C.3       7 UNK         0.0276 
     46 CB         26.9416   31.5967    2.5053 C.3       7 UNK        -0.1927 
     47 C          29.2979   31.8459    1.6072 C.2       7 UNK         0.5013 
     48 O          29.7697   32.9503    1.3346 O.2       7 UNK        -0.5193 
     49 N          29.5076   30.7458    0.8678 N.am      8 UNK        -0.4253 
     50 CA         30.3467   30.7156   -0.3376 C.3       8 UNK         0.0242 
     51 CB         30.0228   29.4621   -1.1631 C.3       8 UNK        -0.2000 
     52 C          31.8528   30.7817   -0.0320 C.2       8 UNK         0.4948 
     53 O          32.6171   31.2728   -0.8642 O.2       8 UNK        -0.5275 
     54 N          32.2479   30.3022    1.1501 N.am      9 UNK        -0.4246 
     55 CA         33.5953   30.3682    1.6985 C.3       9 UNK         0.0261 
     56 CB         34.4022   29.1324    1.2632 C.3       9 UNK        -0.1959 
     57 C          33.4561   30.4265    3.2207 C.2       9 UNK         0.5033 
     58 O          32.4962   29.8676    3.7570 O.2       9 UNK        -0.5390 
     59 N          34.4063   31.0895    3.8887 N.am      10 UNK        -0.4215 
     60 CA         34.4691   31.1677    5.3477 C.3       10 UNK         0.0240 
     61 CB         35.3566   32.3538    5.7605 C.3       10 UNK        -0.1982 
     62 C          35.0111   29.8527    5.9266 C.2       10 UNK         0.4970 
     63 O          36.0437   29.3673    5.4582 O.2       10 UNK        -0.4916 
     64 N          34.3182   29.3179    6.9364 N.am      11 UNK        -0.4279 
     65 CA         34.6793   28.0650    7.6205 C.3       11 UNK         0.1003 
     66 C          35.7109   28.2416    8.7725 C.2       11 UNK         0.5709 
     67 N          36.1077   29.4561    9.1351 N.am      11 UNK        -0.7358 
     68 O          36.1724   27.2546    9.3406 O.2       11 UNK        -0.4999 
     69 C69        33.4217   27.2909    8.0966 C.3       12 UNK        -0.0954 
     70 S70        32.2839   26.8995    6.7266 S.3       12 UNK        -0.2268 
     71 C71        32.9550   25.3041    6.1849 C.3       12 UNK         0.0203 
     72 H72        32.7624   24.0854   -4.4159 H         1 UNK         0.0888 
     73 H73        32.4153   22.9993   -3.0694 H         1 UNK         0.0888 
     74 H74        31.5038   22.8569   -4.5743 H         1 UNK         0.0888 
     75 H75        31.2050   23.9745   -1.4621 H         1 UNK         0.3017 
     76 H76        29.8306   26.4871   -1.8774 H         1 UNK         0.0873 
     77 H77        29.5339   26.5082    0.5324 H         1 UNK         0.0745 
     78 H78        29.8915   24.8251    0.6722 H         1 UNK         0.0745 
     79 H79        33.6325   24.7056    1.2026 H         1 UNK         0.0705 
     80 H80        32.3105   23.7816    0.5438 H         1 UNK         0.0705 
     81 H81        33.5677   25.5636    3.5356 H         1 UNK         0.1334 
     82 H82        30.6388   23.8813    6.1789 H         1 UNK         0.1417 
     83 H83        30.3657   23.1715    1.9677 H         1 UNK         0.1562 
     84 H84        28.8633   22.5113    5.3414 H         1 UNK         0.0748 
     85 H85        29.1541   21.7086    3.8183 H         1 UNK         0.0748 
     86 H86        28.2014   24.9710    5.4113 H         1 UNK         0.0940 
     87 H87        26.5533   25.2165    4.9104 H         1 UNK         0.0940 
     88 H88        28.9800   26.1306    3.2686 H         1 UNK         0.0703 
     89 H89        26.2543   26.0303    2.5546 H         1 UNK         0.3081 
     90 H90        25.2921   28.4014    1.2736 H         1 UNK         0.0719 
     91 H91        27.2039   28.0850   -1.0986 H         1 UNK         0.0809 
     92 H92        25.6038   28.8134   -1.1642 H         1 UNK         0.0809 
     93 H93        26.8784   29.5948   -0.2486 H         1 UNK         0.0809 
     94 H94        26.1357   25.8117    0.0792 H         1 UNK         0.2990 
     95 H95        23.6902   24.2823    0.2480 H         1 UNK         0.0690 
     96 H96        22.1739   24.0603   -1.7394 H         1 UNK         0.0788 
     97 H97        22.4251   25.7640   -2.1182 H         1 UNK         0.0788 
     98 H98        21.6209   25.2993   -0.6267 H         1 UNK         0.0788 
     99 H99        25.2593   23.5884   -1.1318 H         1 UNK         0.2993 
    100 H100       26.5359   23.2422   -2.8423 H         1 UNK         0.0949 
    101 H101       26.5498   25.2723   -5.1357 H         1 UNK         0.0767 
    102 H102       27.2528   23.6558   -5.1577 H         1 UNK         0.0767 
    103 H103       25.5109   23.8557   -5.0504 H         1 UNK         0.0767 
    104 H104       28.5004   25.0595   -3.5389 H         1 UNK         0.3013 
    105 H105       30.1300   27.5557    4.3917 H         1 UNK         0.3121 
    106 H106       30.8267   29.2511    5.5851 H         1 UNK         0.0774 
    107 H107       29.7365   29.9764    7.6336 H         1 UNK         0.0815 
    108 H108       28.1990   29.2884    7.1438 H         1 UNK         0.0815 
    109 H109       29.5655   28.2351    7.5102 H         1 UNK         0.0815 
    110 H110       28.7348   29.6252    3.1962 H         1 UNK         0.2987 
    111 H111       28.5673   32.6111    3.4496 H         1 UNK         0.0949 
    112 H112       26.6233   32.4581    1.9166 H         1 UNK         0.0806 
    113 H113       26.7195   30.7038    1.9229 H         1 UNK         0.0806 
    114 H114       26.3222   31.5702    3.4019 H         1 UNK         0.0806 
    115 H115       29.0647   29.8712    1.1449 H         1 UNK         0.3010 
    116 H116       30.1049   31.5897   -0.9464 H         1 UNK         0.0829 
    117 H117       29.0154   29.5112   -1.5723 H         1 UNK         0.0813 
    118 H118       30.7049   29.3568   -2.0081 H         1 UNK         0.0813 
    119 H119       30.1061   28.5590   -0.5606 H         1 UNK         0.0813 
    120 H120       31.5576   29.9504    1.8023 H         1 UNK         0.3038 
    121 H121       34.0892   31.2780    1.3501 H         1 UNK         0.0769 
    122 H122       35.4170   29.1666    1.6612 H         1 UNK         0.0811 
    123 H123       34.4792   29.0700    0.1777 H         1 UNK         0.0811 
    124 H124       33.9426   28.2089    1.6185 H         1 UNK         0.0811 
    125 H125       35.1864   31.4793    3.3794 H         1 UNK         0.3204 
    126 H126       33.4615   31.3448    5.7319 H         1 UNK         0.0748 
    127 H127       36.3811   32.2377    5.4038 H         1 UNK         0.0771 
    128 H128       34.9693   33.2942    5.3678 H         1 UNK         0.0771 
    129 H129       35.3987   32.4506    6.8461 H         1 UNK         0.0771 
    130 H130       33.4819   29.7762    7.2657 H         1 UNK         0.2980 
    131 H131       35.1824   27.4232    6.8948 H         1 UNK         0.0545 
    132 H132       36.7809   29.5531    9.8789 H         1 UNK         0.3459 
    133 H133       35.7422   30.2734    8.6747 H         1 UNK         0.3459 
    134 H134       32.8729   27.8775    8.8353 H         1 UNK         0.0616 
    135 H135       33.6992   26.3599    8.5945 H         1 UNK         0.0616 
    136 H136       34.0115   25.4206    5.9391 H         1 UNK         0.0634 
    137 H137       32.9055   24.5913    7.0096 H         1 UNK         0.0634 
@<TRIPOS>BOND
     1    1    2 1    
     2    1   72 1    
     3    1   73 1    
     4    1   74 1    
     5    2    3 2    
     6    2    4 am   BACKBONE|DICT|INTERRES
     7    4    5 1    
     8    4   75 1    
     9    5    6 1    
    10    5   35 1    
    11    5   76 1    
    12    6    7 1    
    13    6   77 1    
    14    6   78 1    
    15    7    8 1    
    16    8    9 1    
    17    8   79 1    
    18    8   80 1    
    19    9   10 ar   
    20    9   14 ar   
    21   10   11 ar   
    22   10   81 1    
    23   11   12 ar   
    24   11   71 1    
    25   12   13 ar   
    26   12   82 1    
    27   13   14 ar   
    28   13   15 1    
    29   14   83 1    
    30   15   16 1    
    31   15   84 1    
    32   15   85 1    
    33   16   17 1    
    34   17   18 1    
    35   17   86 1    
    36   17   87 1    
    37   18   19 1    
    38   18   37 1    
    39   18   88 1    
    40   19   20 am   BACKBONE|DICT|INTERRES
    41   19   89 1    
    42   20   21 2    
    43   20   22 1    
    44   22   23 1    
    45   22   24 1    
    46   22   90 1    
    47   23   91 1    
    48   23   92 1    
    49   23   93 1    
    50   24   25 am   BACKBONE|DICT|INTERRES
    51   24   94 1    
    52   25   26 2    
    53   25   27 1    
    54   27   28 1    
    55   27   29 1    
    56   27   95 1    
    57   28   96 1    
    58   28   97 1    
    59   28   98 1    
    60   29   30 am   BACKBONE|DICT|INTERRES
    61   29   99 1    
    62   30   31 2    
    63   30   32 1    
    64   32   33 1    
    65   32   34 1    
    66   32  100 1    
    67   33  101 1    
    68   33  102 1    
    69   33  103 1    
    70   34   35 am   BACKBONE|DICT|INTERRES
    71   34  104 1    
    72   35   36 2    
    73   37   38 2    
    74   37   39 am   BACKBONE|DICT|INTERRES
    75   39   40 1    
    76   39  105 1    
    77   40   41 1    
    78   40   42 1    
    79   40  106 1    
    80   41  107 1    
    81   41  108 1    
    82   41  109 1    
    83   42   43 2    
    84   42   44 am   BACKBONE|DICT|INTERRES
    85   44   45 1    
    86   44  110 1    
    87   45   46 1    
    88   45   47 1    
    89   45  111 1    
    90   46  112 1    
    91   46  113 1    
    92   46  114 1    
    93   47   48 2    
    94   47   49 am   BACKBONE|DICT|INTERRES
    95   49   50 1    
    96   49  115 1    
    97   50   51 1    
    98   50   52 1    
    99   50  116 1    
   100   51  117 1    
   101   51  118 1    
   102   51  119 1    
   103   52   53 2    
   104   52   54 am   BACKBONE|DICT|INTERRES
   105   54   55 1    
   106   54  120 1    
   107   55   56 1    
   108   55   57 1    
   109   55  121 1    
   110   56  122 1    
   111   56  123 1    
   112   56  124 1    
   113   57   58 2    
   114   57   59 am   BACKBONE|DICT|INTERRES
   115   59   60 1    
   116   59  125 1    
   117   60   61 1    
   118   60   62 1    
   119   60  126 1    
   120   61  127 1    
   121   61  128 1    
   122   61  129 1    
   123   62   63 2    
   124   62   64 am   BACKBONE|DICT|INTERRES
   125   64   65 1    
   126   64  130 1    
   127   65   66 1    
   128   65   69 1    
   129   65  131 1    
   130   66   67 am   BACKBONE|DICT|INTERRES
   131   66   68 2    
   132   67  132 1    
   133   67  133 1    
   134   69   70 1    
   135   69  134 1    
   136   69  135 1    
   137   70   71 1    
   138   71  136 1    
   139   71  137 1    
@<TRIPOS>SUBSTRUCTURE
     1 UNK         1 GROUP             0       ****    0 ROOT    
