@<TRIPOS>MOLECULE
3R136
137   139    1
SMALL
USER_CHARGES


@<TRIPOS>ATOM
      1 CA         26.2730   27.6495    3.1976 C.3       0 UNK        -0.1979 
      2 C          26.3763   26.1744    2.8461 C.2       0 UNK         0.4864 
      3 O          25.3990   25.4451    3.0289 O.2       0 UNK        -0.5359 
      4 N          27.5353   25.7188    2.3449 N.am      1 UNK        -0.4318 
      5 CA         27.7686   24.3316    1.9265 C.3       1 UNK         0.0824 
      6 C6         29.2326   24.0774    1.5102 C.3       12 UNK        -0.0944 
      7 S7         30.3941   24.2132    2.9095 S.3       12 UNK        -0.2672 
      8 C8         31.9601   23.7681    2.0938 C.3       12 UNK         0.0333 
      9 C9         32.5081   24.9007    1.2347 C.ar      12 UNK        -0.0807 
     10 C10        33.4283   25.8050    1.7724 C.ar      12 UNK        -0.0894 
     11 C11        33.9738   26.8196    0.9801 C.ar      12 UNK        -0.0804 
     12 C12        33.5645   26.9513   -0.3503 C.ar      12 UNK        -0.0824 
     13 C13        32.6382   26.0579   -0.8985 C.ar      12 UNK        -0.0762 
     14 C14        32.1275   25.0254   -0.1056 C.ar      12 UNK        -0.0782 
     15 C15        32.2220   26.1859   -2.3576 C.3       12 UNK         0.0230 
     16 S16        30.9716   27.4857   -2.6064 S.3       12 UNK        -0.2608 
     17 C17        29.4672   26.6835   -1.9525 C.3       12 UNK        -0.0989 
     18 CA         28.2604   27.6592   -1.8695 C.3       5 UNK         0.0716 
     19 N          26.9940   26.9418   -2.0241 N.am      5 UNK        -0.4135 
     20 C          25.9793   27.3501   -2.7965 C.2       4 UNK         0.5031 
     21 O          26.0139   28.3578   -3.5051 O.2       4 UNK        -0.5229 
     22 CA         24.7065   26.4965   -2.7898 C.3       4 UNK         0.0329 
     23 CB         24.8884   25.2503   -3.6731 C.3       4 UNK        -0.2001 
     24 N          24.3439   26.0756   -1.4371 N.am      4 UNK        -0.4303 
     25 C          23.1695   26.3244   -0.8391 C.2       3 UNK         0.5044 
     26 O          22.2927   27.0392   -1.3284 O.2       3 UNK        -0.5152 
     27 CA         22.9205   25.6498    0.5302 C.3       3 UNK         0.0319 
     28 CB         21.4276   25.3543    0.7871 C.3       3 UNK        -0.2001 
     29 N          23.7357   24.4465    0.7443 N.am      3 UNK        -0.4354 
     30 C          23.7709   23.3380   -0.0174 C.2       2 UNK         0.4964 
     31 O          22.9651   23.1063   -0.9197 O.2       2 UNK        -0.5047 
     32 CA         24.9224   22.3380    0.2319 C.3       2 UNK         0.0288 
     33 CB         25.4735   21.7548   -1.0874 C.3       2 UNK        -0.2113 
     34 N          26.0226   22.8705    1.0496 N.am      2 UNK        -0.4145 
     35 C          26.7993   23.9361    0.7943 C.2       1 UNK         0.5006 
     36 O          26.7302   24.6267   -0.2304 O.2       1 UNK        -0.5103 
     37 C          28.2443   28.4694   -0.5567 C.2       5 UNK         0.5055 
     38 O          27.2272   28.5220    0.1411 O.2       5 UNK        -0.5220 
     39 N          29.3951   29.0704   -0.2337 N.am      6 UNK        -0.4450 
     40 CA         29.7068   29.6395    1.0775 C.3       6 UNK         0.0367 
     41 CB         31.0126   30.4439    0.9637 C.3       6 UNK        -0.1929 
     42 C          29.8439   28.5353    2.1415 C.2       6 UNK         0.5070 
     43 O          29.9315   27.3555    1.8014 O.2       6 UNK        -0.5237 
     44 N          29.8409   28.9304    3.4169 N.am      7 UNK        -0.4739 
     45 CA         30.1506   28.0432    4.5375 C.3       7 UNK         0.0276 
     46 CB         29.3019   28.4538    5.7518 C.3       7 UNK        -0.1927 
     47 C          31.6403   28.1792    4.8660 C.2       7 UNK         0.5013 
     48 O          32.1689   29.2894    4.7826 O.2       7 UNK        -0.5193 
     49 N          32.2802   27.0891    5.3100 N.am      8 UNK        -0.4253 
     50 CA         33.7021   27.0572    5.6863 C.3       8 UNK         0.0242 
     51 CB         34.0887   25.6317    6.1092 C.3       8 UNK        -0.2000 
     52 C          34.0937   28.0750    6.7776 C.2       8 UNK         0.4948 
     53 O          35.2064   28.6019    6.7461 O.2       8 UNK        -0.5275 
     54 N          33.1533   28.3748    7.6851 N.am      9 UNK        -0.4246 
     55 CA         33.2723   29.4200    8.7043 C.3       9 UNK         0.0261 
     56 CB         32.1300   29.2633    9.7213 C.3       9 UNK        -0.1959 
     57 C          33.2867   30.8509    8.1303 C.2       9 UNK         0.5033 
     58 O          33.8540   31.7384    8.7691 O.2       9 UNK        -0.5390 
     59 N          32.6738   31.0582    6.9551 N.am      10 UNK        -0.4215 
     60 CA         32.7079   32.3225    6.2177 C.3       10 UNK         0.0240 
     61 CB         31.4228   32.4848    5.3874 C.3       10 UNK        -0.1982 
     62 C          33.9544   32.4046    5.3232 C.2       10 UNK         0.4970 
     63 O          34.5223   33.4899    5.1944 O.2       10 UNK        -0.4916 
     64 N          34.3662   31.2681    4.7404 N.am      11 UNK        -0.4279 
     65 CA         35.6189   31.1236    3.9815 C.3       11 UNK         0.1003 
     66 C          36.8824   31.4137    4.8385 C.2       11 UNK         0.5709 
     67 N          36.9807   30.8559    6.0399 N.am      11 UNK        -0.7358 
     68 O          37.7728   32.1443    4.4106 O.2       11 UNK        -0.4999 
     69 C69        35.7577   29.7320    3.3132 C.3       12 UNK        -0.0954 
     70 S70        34.3591   29.2580    2.2490 S.3       12 UNK        -0.2268 
     71 C71        35.0487   27.7306    1.5498 C.3       12 UNK         0.0203 
     72 H72        27.1856   28.1905    2.9639 H         1 UNK         0.0888 
     73 H73        26.0654   27.7705    4.2601 H         1 UNK         0.0888 
     74 H74        25.4612   28.1093    2.6346 H         1 UNK         0.0888 
     75 H75        28.3169   26.3513    2.1876 H         1 UNK         0.3017 
     76 H76        27.5561   23.7019    2.7934 H         1 UNK         0.0873 
     77 H77        29.5224   24.7890    0.7398 H         1 UNK         0.0745 
     78 H78        29.3457   23.0811    1.0777 H         1 UNK         0.0745 
     79 H79        32.6874   23.5039    2.8629 H         1 UNK         0.0705 
     80 H80        31.8201   22.8689    1.4920 H         1 UNK         0.0705 
     81 H81        33.7379   25.7048    2.8033 H         1 UNK         0.1334 
     82 H82        33.9798   27.7386   -0.9647 H         1 UNK         0.1417 
     83 H83        31.4309   24.3176   -0.5327 H         1 UNK         0.1562 
     84 H84        31.8425   25.2367   -2.7393 H         1 UNK         0.0748 
     85 H85        33.0984   26.4248   -2.9619 H         1 UNK         0.0748 
     86 H86        29.6779   26.2343   -0.9819 H         1 UNK         0.0940 
     87 H87        29.2361   25.8529   -2.6221 H         1 UNK         0.0940 
     88 H88        28.3556   28.3857   -2.6793 H         1 UNK         0.0703 
     89 H89        26.8752   26.1300   -1.4251 H         1 UNK         0.3081 
     90 H90        23.9100   27.1031   -3.2259 H         1 UNK         0.0719 
     91 H91        25.6776   24.5979   -3.2971 H         1 UNK         0.0809 
     92 H92        23.9696   24.6653   -3.7224 H         1 UNK         0.0809 
     93 H93        25.1516   25.5292   -4.6943 H         1 UNK         0.0809 
     94 H94        25.0192   25.5011   -0.9444 H         1 UNK         0.2990 
     95 H95        23.2479   26.3703    1.2812 H         1 UNK         0.0690 
     96 H96        21.2783   24.8847    1.7593 H         1 UNK         0.0788 
     97 H97        21.0083   24.6945    0.0270 H         1 UNK         0.0788 
     98 H98        20.8393   26.2726    0.7794 H         1 UNK         0.0788 
     99 H99        24.4227   24.5376    1.4875 H         1 UNK         0.2993 
    100 H100       24.4850   21.5169    0.8021 H         1 UNK         0.0949 
    101 H101       24.6952   21.2286   -1.6415 H         1 UNK         0.0767 
    102 H102       25.8668   22.5335   -1.7415 H         1 UNK         0.0767 
    103 H103       26.2738   21.0386   -0.9006 H         1 UNK         0.0767 
    104 H104       26.1482   22.4053    1.9387 H         1 UNK         0.3013 
    105 H105       30.1831   28.9110   -0.8477 H         1 UNK         0.3121 
    106 H106       28.8948   30.3073    1.3726 H         1 UNK         0.0774 
    107 H107       30.9153   31.2612    0.2492 H         1 UNK         0.0815 
    108 H108       31.8417   29.8127    0.6405 H         1 UNK         0.0815 
    109 H109       31.2962   30.8832    1.9212 H         1 UNK         0.0815 
    110 H110       29.8257   29.9185    3.6241 H         1 UNK         0.2987 
    111 H111       29.9272   27.0043    4.2838 H         1 UNK         0.0949 
    112 H112       29.5119   29.4768    6.0678 H         1 UNK         0.0806 
    113 H113       28.2369   28.3854    5.5313 H         1 UNK         0.0806 
    114 H114       29.4963   27.8018    6.6044 H         1 UNK         0.0806 
    115 H115       31.7764   26.2150    5.3631 H         1 UNK         0.3010 
    116 H116       34.2735   27.3117    4.7921 H         1 UNK         0.0829 
    117 H117       33.9127   24.9161    5.3058 H         1 UNK         0.0813 
    118 H118       35.1481   25.5750    6.3640 H         1 UNK         0.0813 
    119 H119       33.5252   25.3021    6.9829 H         1 UNK         0.0813 
    120 H120       32.2736   27.8821    7.6383 H         1 UNK         0.3038 
    121 H121       34.2192   29.2698    9.2275 H         1 UNK         0.0769 
    122 H122       31.1520   29.3846    9.2535 H         1 UNK         0.0811 
    123 H123       32.2072   30.0108   10.5123 H         1 UNK         0.0811 
    124 H124       32.1556   28.2845   10.2007 H         1 UNK         0.0811 
    125 H125       32.2977   30.2639    6.4472 H         1 UNK         0.3204 
    126 H126       32.7497   33.1505    6.9288 H         1 UNK         0.0748 
    127 H127       31.3441   31.7355    4.6000 H         1 UNK         0.0771 
    128 H128       30.5336   32.4094    6.0134 H         1 UNK         0.0771 
    129 H129       31.3973   33.4623    4.9043 H         1 UNK         0.0771 
    130 H130       33.7930   30.4356    4.8252 H         1 UNK         0.2980 
    131 H131       35.5912   31.8692    3.1848 H         1 UNK         0.0545 
    132 H132       37.7934   31.0385    6.6059 H         1 UNK         0.3459 
    133 H133       36.2807   30.1909    6.3557 H         1 UNK         0.3459 
    134 H134       36.6631   29.7032    2.7036 H         1 UNK         0.0616 
    135 H135       35.8779   28.9577    4.0724 H         1 UNK         0.0616 
    136 H136       35.6046   27.1959    2.3217 H         1 UNK         0.0634 
    137 H137       35.7734   27.9883    0.7761 H         1 UNK         0.0634 
@<TRIPOS>BOND
     1    1    2 1    
     2    1   72 1    
     3    1   73 1    
     4    1   74 1    
     5    2    3 2    
     6    2    4 am   BACKBONE|DICT|INTERRES
     7    4    5 1    
     8    4   75 1    
     9    5    6 1    
    10    5   35 1    
    11    5   76 1    
    12    6    7 1    
    13    6   77 1    
    14    6   78 1    
    15    7    8 1    
    16    8    9 1    
    17    8   79 1    
    18    8   80 1    
    19    9   10 ar   
    20    9   14 ar   
    21   10   11 ar   
    22   10   81 1    
    23   11   12 ar   
    24   11   71 1    
    25   12   13 ar   
    26   12   82 1    
    27   13   14 ar   
    28   13   15 1    
    29   14   83 1    
    30   15   16 1    
    31   15   84 1    
    32   15   85 1    
    33   16   17 1    
    34   17   18 1    
    35   17   86 1    
    36   17   87 1    
    37   18   19 1    
    38   18   37 1    
    39   18   88 1    
    40   19   20 am   BACKBONE|DICT|INTERRES
    41   19   89 1    
    42   20   21 2    
    43   20   22 1    
    44   22   23 1    
    45   22   24 1    
    46   22   90 1    
    47   23   91 1    
    48   23   92 1    
    49   23   93 1    
    50   24   25 am   BACKBONE|DICT|INTERRES
    51   24   94 1    
    52   25   26 2    
    53   25   27 1    
    54   27   28 1    
    55   27   29 1    
    56   27   95 1    
    57   28   96 1    
    58   28   97 1    
    59   28   98 1    
    60   29   30 am   BACKBONE|DICT|INTERRES
    61   29   99 1    
    62   30   31 2    
    63   30   32 1    
    64   32   33 1    
    65   32   34 1    
    66   32  100 1    
    67   33  101 1    
    68   33  102 1    
    69   33  103 1    
    70   34   35 am   BACKBONE|DICT|INTERRES
    71   34  104 1    
    72   35   36 2    
    73   37   38 2    
    74   37   39 am   BACKBONE|DICT|INTERRES
    75   39   40 1    
    76   39  105 1    
    77   40   41 1    
    78   40   42 1    
    79   40  106 1    
    80   41  107 1    
    81   41  108 1    
    82   41  109 1    
    83   42   43 2    
    84   42   44 am   BACKBONE|DICT|INTERRES
    85   44   45 1    
    86   44  110 1    
    87   45   46 1    
    88   45   47 1    
    89   45  111 1    
    90   46  112 1    
    91   46  113 1    
    92   46  114 1    
    93   47   48 2    
    94   47   49 am   BACKBONE|DICT|INTERRES
    95   49   50 1    
    96   49  115 1    
    97   50   51 1    
    98   50   52 1    
    99   50  116 1    
   100   51  117 1    
   101   51  118 1    
   102   51  119 1    
   103   52   53 2    
   104   52   54 am   BACKBONE|DICT|INTERRES
   105   54   55 1    
   106   54  120 1    
   107   55   56 1    
   108   55   57 1    
   109   55  121 1    
   110   56  122 1    
   111   56  123 1    
   112   56  124 1    
   113   57   58 2    
   114   57   59 am   BACKBONE|DICT|INTERRES
   115   59   60 1    
   116   59  125 1    
   117   60   61 1    
   118   60   62 1    
   119   60  126 1    
   120   61  127 1    
   121   61  128 1    
   122   61  129 1    
   123   62   63 2    
   124   62   64 am   BACKBONE|DICT|INTERRES
   125   64   65 1    
   126   64  130 1    
   127   65   66 1    
   128   65   69 1    
   129   65  131 1    
   130   66   67 am   BACKBONE|DICT|INTERRES
   131   66   68 2    
   132   67  132 1    
   133   67  133 1    
   134   69   70 1    
   135   69  134 1    
   136   69  135 1    
   137   70   71 1    
   138   71  136 1    
   139   71  137 1    
@<TRIPOS>SUBSTRUCTURE
     1 UNK         1 GROUP             0       ****    0 ROOT    
