@<TRIPOS>MOLECULE
3R136
137   139    1
SMALL
USER_CHARGES


@<TRIPOS>ATOM
      1 CA         30.0084   20.8676   -4.4857 C.3       0 UNK        -0.1979 
      2 C          30.0215   22.1553   -3.6750 C.2       0 UNK         0.4864 
      3 O          30.5866   23.1526   -4.1251 O.2       0 UNK        -0.5359 
      4 N          29.4089   22.1360   -2.4827 N.am      1 UNK        -0.4318 
      5 CA         29.2871   23.2838   -1.5758 C.3       1 UNK         0.0824 
      6 C6         28.8058   22.8312   -0.1729 C.3       12 UNK        -0.0944 
      7 S7         29.1440   24.0427    1.1485 S.3       12 UNK        -0.2672 
      8 C8         30.6399   23.3375    1.9114 C.3       12 UNK         0.0333 
      9 C9         30.8297   23.8833    3.3162 C.ar      12 UNK        -0.0807 
     10 C10        31.6711   24.9743    3.5537 C.ar      12 UNK        -0.0894 
     11 C11        31.8096   25.4940    4.8458 C.ar      12 UNK        -0.0804 
     12 C12        31.0930   24.9197    5.9006 C.ar      12 UNK        -0.0824 
     13 C13        30.2186   23.8547    5.6642 C.ar      12 UNK        -0.0762 
     14 C14        30.1185   23.3179    4.3777 C.ar      12 UNK        -0.0782 
     15 C15        29.2926   23.3619    6.7655 C.3       12 UNK         0.0230 
     16 S16        27.5515   23.7791    6.3961 S.3       12 UNK        -0.2608 
     17 C17        27.5710   25.6102    6.3428 C.3       12 UNK        -0.0989 
     18 CA         27.9237   26.1999    4.9448 C.3       5 UNK         0.0716 
     19 N          27.1492   25.6405    3.8336 N.am      5 UNK        -0.4135 
     20 C          25.8442   25.7954    3.5862 C.2       4 UNK         0.5031 
     21 O          25.0689   26.4448    4.2905 O.2       4 UNK        -0.5229 
     22 CA         25.3419   25.1320    2.2895 C.3       4 UNK         0.0329 
     23 CB         23.9688   24.4692    2.4959 C.3       4 UNK        -0.2001 
     24 N          25.2624   26.0440    1.1412 N.am      4 UNK        -0.4303 
     25 C          26.1977   26.9055    0.7147 C.2       3 UNK         0.5044 
     26 O          27.2698   27.1114    1.2862 O.2       3 UNK        -0.5152 
     27 CA         25.9052   27.6060   -0.6212 C.3       3 UNK         0.0319 
     28 CB         26.7134   28.9040   -0.8011 C.3       3 UNK        -0.2001 
     29 N          26.2539   26.6935   -1.7042 N.am      3 UNK        -0.4354 
     30 C          25.4657   25.7398   -2.2099 C.2       2 UNK         0.4964 
     31 O          24.2895   25.5797   -1.8818 O.2       2 UNK        -0.5047 
     32 CA         26.1087   24.7826   -3.2296 C.3       2 UNK         0.0288 
     33 CB         26.5502   25.5182   -4.5116 C.3       2 UNK        -0.2113 
     34 N          27.1989   23.9745   -2.6620 N.am      2 UNK        -0.4145 
     35 C          28.3809   24.3836   -2.1691 C.2       1 UNK         0.5006 
     36 O          28.7698   25.5530   -2.1820 O.2       1 UNK        -0.5103 
     37 C          28.0289   27.7422    4.9360 C.2       5 UNK         0.5055 
     38 O          28.3527   28.3341    5.9672 O.2       5 UNK        -0.5220 
     39 N          27.8093   28.3622    3.7699 N.am      6 UNK        -0.4450 
     40 CA         28.0160   29.7882    3.5103 C.3       6 UNK         0.0367 
     41 CB         26.6765   30.4224    3.1037 C.3       6 UNK        -0.1929 
     42 C          29.0897   30.0220    2.4322 C.2       6 UNK         0.5070 
     43 O          29.5567   31.1541    2.2956 O.2       6 UNK        -0.5237 
     44 N          29.4809   28.9659    1.7029 N.am      7 UNK        -0.4739 
     45 CA         30.5072   28.9511    0.6578 C.3       7 UNK         0.0276 
     46 CB         30.7008   27.5017    0.1854 C.3       7 UNK        -0.1927 
     47 C          31.8516   29.5467    1.1101 C.2       7 UNK         0.5013 
     48 O          32.2797   29.3036    2.2412 O.2       7 UNK        -0.5193 
     49 N          32.4770   30.3257    0.2148 N.am      8 UNK        -0.4253 
     50 CA         33.7337   31.0622    0.4142 C.3       8 UNK         0.0242 
     51 CB         34.9252   30.0832    0.4965 C.3       8 UNK        -0.2000 
     52 C          33.6789   32.0482    1.6014 C.2       8 UNK         0.4948 
     53 O          34.6656   32.1850    2.3252 O.2       8 UNK        -0.5275 
     54 N          32.5156   32.6977    1.7798 N.am      9 UNK        -0.4246 
     55 CA         32.1522   33.5885    2.8915 C.3       9 UNK         0.0261 
     56 CB         32.9942   34.8827    2.8657 C.3       9 UNK        -0.1959 
     57 C          32.1930   32.8604    4.2502 C.2       9 UNK         0.5033 
     58 O          32.7778   33.3677    5.2091 O.2       9 UNK        -0.5390 
     59 N          31.5691   31.6737    4.2824 N.am      10 UNK        -0.4215 
     60 CA         31.5517   30.6931    5.3734 C.3       10 UNK         0.0240 
     61 CB         30.7676   31.2301    6.5893 C.3       10 UNK        -0.1982 
     62 C          32.9638   30.1835    5.7265 C.2       10 UNK         0.4970 
     63 O          33.3178   30.1196    6.9057 O.2       10 UNK        -0.4916 
     64 N          33.7203   29.8046    4.6861 N.am      11 UNK        -0.4279 
     65 CA         35.0970   29.2833    4.7240 C.3       11 UNK         0.1003 
     66 C          36.1595   30.3065    5.2316 C.2       11 UNK         0.5709 
     67 N          37.4369   29.9518    5.1655 N.am      11 UNK        -0.7358 
     68 O          35.8653   31.4190    5.6634 O.2       11 UNK        -0.4999 
     69 C69        35.1953   27.9072    5.4516 C.3       12 UNK        -0.0954 
     70 S70        34.3771   26.5456    4.5525 S.3       12 UNK        -0.2268 
     71 C71        32.6511   26.7360    5.0950 C.3       12 UNK         0.0203 
     72 H72        31.0282   20.5364   -4.6801 H         1 UNK         0.0888 
     73 H73        29.4843   20.0640   -3.9686 H         1 UNK         0.0888 
     74 H74        29.5152   21.0326   -5.4433 H         1 UNK         0.0888 
     75 H75        28.9781   21.2778   -2.1687 H         1 UNK         0.3017 
     76 H76        30.2873   23.7104   -1.4691 H         1 UNK         0.0873 
     77 H77        29.2852   21.8891    0.0966 H         1 UNK         0.0745 
     78 H78        27.7355   22.6155   -0.1737 H         1 UNK         0.0745 
     79 H79        31.5058   23.5622    1.2868 H         1 UNK         0.0705 
     80 H80        30.5639   22.2503    1.9595 H         1 UNK         0.0705 
     81 H81        32.2030   25.4343    2.7320 H         1 UNK         0.1334 
     82 H82        31.1604   25.3468    6.8921 H         1 UNK         0.1417 
     83 H83        29.4325   22.5026    4.1903 H         1 UNK         0.1562 
     84 H84        29.5689   23.7847    7.7327 H         1 UNK         0.0748 
     85 H85        29.3886   22.2795    6.8615 H         1 UNK         0.0748 
     86 H86        28.2730   25.9663    7.0990 H         1 UNK         0.0940 
     87 H87        26.5880   25.9657    6.6563 H         1 UNK         0.0940 
     88 H88        28.9394   25.9055    4.7065 H         1 UNK         0.0703 
     89 H89        27.6965   25.1293    3.1534 H         1 UNK         0.3081 
     90 H90        26.0466   24.3432    2.0182 H         1 UNK         0.0719 
     91 H91        23.1902   25.2070    2.6944 H         1 UNK         0.0809 
     92 H92        23.6695   23.8919    1.6208 H         1 UNK         0.0809 
     93 H93        23.9905   23.7826    3.3435 H         1 UNK         0.0809 
     94 H94        24.4390   25.9444    0.5630 H         1 UNK         0.2990 
     95 H95        24.8426   27.8545   -0.6651 H         1 UNK         0.0690 
     96 H96        26.4752   29.3872   -1.7488 H         1 UNK         0.0788 
     97 H97        27.7877   28.7185   -0.7853 H         1 UNK         0.0788 
     98 H98        26.4919   29.6201   -0.0111 H         1 UNK         0.0788 
     99 H99        27.2381   26.6481   -1.9573 H         1 UNK         0.2993 
    100 H100       25.3317   24.0725   -3.5185 H         1 UNK         0.0949 
    101 H101       26.9201   24.8167   -5.2595 H         1 UNK         0.0767 
    102 H102       25.7128   26.0560   -4.9582 H         1 UNK         0.0767 
    103 H103       27.3383   26.2474   -4.3226 H         1 UNK         0.0767 
    104 H104       26.9968   22.9868   -2.5946 H         1 UNK         0.3013 
    105 H105       27.5381   27.7985    2.9660 H         1 UNK         0.3121 
    106 H106       28.3701   30.2935    4.4111 H         1 UNK         0.0774 
    107 H107       26.8017   31.4718    2.8331 H         1 UNK         0.0815 
    108 H108       26.2291   29.9117    2.2522 H         1 UNK         0.0815 
    109 H109       25.9610   30.3830    3.9251 H         1 UNK         0.0815 
    110 H110       28.9879   28.0916    1.8322 H         1 UNK         0.2987 
    111 H111       30.1221   29.5429   -0.1747 H         1 UNK         0.0949 
    112 H112       31.4216   27.4442   -0.6310 H         1 UNK         0.0806 
    113 H113       31.0653   26.8626    0.9906 H         1 UNK         0.0806 
    114 H114       29.7661   27.0738   -0.1777 H         1 UNK         0.0806 
    115 H115       32.0395   30.4581   -0.6870 H         1 UNK         0.3010 
    116 H116       33.8767   31.6771   -0.4758 H         1 UNK         0.0829 
    117 H117       34.9720   29.4431   -0.3842 H         1 UNK         0.0813 
    118 H118       35.8733   30.6194    0.5552 H         1 UNK         0.0813 
    119 H119       34.8601   29.4388    1.3727 H         1 UNK         0.0813 
    120 H120       31.7637   32.4862    1.1377 H         1 UNK         0.3038 
    121 H121       31.1107   33.8717    2.7300 H         1 UNK         0.0769 
    122 H122       32.6439   35.5894    3.6189 H         1 UNK         0.0811 
    123 H123       32.9277   35.3807    1.8985 H         1 UNK         0.0811 
    124 H124       34.0471   34.6871    3.0714 H         1 UNK         0.0811 
    125 H125       31.0843   31.3864    3.4352 H         1 UNK         0.3204 
    126 H126       31.0064   29.8278    4.9932 H         1 UNK         0.0748 
    127 H127       30.6484   30.4547    7.3471 H         1 UNK         0.0771 
    128 H128       31.2749   32.0723    7.0608 H         1 UNK         0.0771 
    129 H129       29.7677   31.5562    6.3031 H         1 UNK         0.0771 
    130 H130       33.3065   29.8510    3.7587 H         1 UNK         0.2980 
    131 H131       35.3546   29.1228    3.6773 H         1 UNK         0.0545 
    132 H132       38.1398   30.6021    5.4802 H         1 UNK         0.3459 
    133 H133       37.7129   29.0543    4.7994 H         1 UNK         0.3459 
    134 H134       36.2362   27.6002    5.5599 H         1 UNK         0.0616 
    135 H135       34.8061   27.9658    6.4687 H         1 UNK         0.0616 
    136 H136       32.1956   27.5619    4.5492 H         1 UNK         0.0634 
    137 H137       32.6332   27.0071    6.1517 H         1 UNK         0.0634 
@<TRIPOS>BOND
     1    1    2 1    
     2    1   72 1    
     3    1   73 1    
     4    1   74 1    
     5    2    3 2    
     6    2    4 am   BACKBONE|DICT|INTERRES
     7    4    5 1    
     8    4   75 1    
     9    5    6 1    
    10    5   35 1    
    11    5   76 1    
    12    6    7 1    
    13    6   77 1    
    14    6   78 1    
    15    7    8 1    
    16    8    9 1    
    17    8   79 1    
    18    8   80 1    
    19    9   10 ar   
    20    9   14 ar   
    21   10   11 ar   
    22   10   81 1    
    23   11   12 ar   
    24   11   71 1    
    25   12   13 ar   
    26   12   82 1    
    27   13   14 ar   
    28   13   15 1    
    29   14   83 1    
    30   15   16 1    
    31   15   84 1    
    32   15   85 1    
    33   16   17 1    
    34   17   18 1    
    35   17   86 1    
    36   17   87 1    
    37   18   19 1    
    38   18   37 1    
    39   18   88 1    
    40   19   20 am   BACKBONE|DICT|INTERRES
    41   19   89 1    
    42   20   21 2    
    43   20   22 1    
    44   22   23 1    
    45   22   24 1    
    46   22   90 1    
    47   23   91 1    
    48   23   92 1    
    49   23   93 1    
    50   24   25 am   BACKBONE|DICT|INTERRES
    51   24   94 1    
    52   25   26 2    
    53   25   27 1    
    54   27   28 1    
    55   27   29 1    
    56   27   95 1    
    57   28   96 1    
    58   28   97 1    
    59   28   98 1    
    60   29   30 am   BACKBONE|DICT|INTERRES
    61   29   99 1    
    62   30   31 2    
    63   30   32 1    
    64   32   33 1    
    65   32   34 1    
    66   32  100 1    
    67   33  101 1    
    68   33  102 1    
    69   33  103 1    
    70   34   35 am   BACKBONE|DICT|INTERRES
    71   34  104 1    
    72   35   36 2    
    73   37   38 2    
    74   37   39 am   BACKBONE|DICT|INTERRES
    75   39   40 1    
    76   39  105 1    
    77   40   41 1    
    78   40   42 1    
    79   40  106 1    
    80   41  107 1    
    81   41  108 1    
    82   41  109 1    
    83   42   43 2    
    84   42   44 am   BACKBONE|DICT|INTERRES
    85   44   45 1    
    86   44  110 1    
    87   45   46 1    
    88   45   47 1    
    89   45  111 1    
    90   46  112 1    
    91   46  113 1    
    92   46  114 1    
    93   47   48 2    
    94   47   49 am   BACKBONE|DICT|INTERRES
    95   49   50 1    
    96   49  115 1    
    97   50   51 1    
    98   50   52 1    
    99   50  116 1    
   100   51  117 1    
   101   51  118 1    
   102   51  119 1    
   103   52   53 2    
   104   52   54 am   BACKBONE|DICT|INTERRES
   105   54   55 1    
   106   54  120 1    
   107   55   56 1    
   108   55   57 1    
   109   55  121 1    
   110   56  122 1    
   111   56  123 1    
   112   56  124 1    
   113   57   58 2    
   114   57   59 am   BACKBONE|DICT|INTERRES
   115   59   60 1    
   116   59  125 1    
   117   60   61 1    
   118   60   62 1    
   119   60  126 1    
   120   61  127 1    
   121   61  128 1    
   122   61  129 1    
   123   62   63 2    
   124   62   64 am   BACKBONE|DICT|INTERRES
   125   64   65 1    
   126   64  130 1    
   127   65   66 1    
   128   65   69 1    
   129   65  131 1    
   130   66   67 am   BACKBONE|DICT|INTERRES
   131   66   68 2    
   132   67  132 1    
   133   67  133 1    
   134   69   70 1    
   135   69  134 1    
   136   69  135 1    
   137   70   71 1    
   138   71  136 1    
   139   71  137 1    
@<TRIPOS>SUBSTRUCTURE
     1 UNK         1 GROUP             0       ****    0 ROOT    
