@<TRIPOS>MOLECULE
3R136
137   139    1
SMALL
USER_CHARGES


@<TRIPOS>ATOM
      1 CA         25.8128   19.6158    4.7407 C.3       0 UNK        -0.1979 
      2 C          26.2042   21.0051    4.2587 C.2       0 UNK         0.4864 
      3 O          25.9042   21.9927    4.9314 O.2       0 UNK        -0.5359 
      4 N          26.8636   21.0898    3.0958 N.am      1 UNK        -0.4318 
      5 CA         27.3757   22.3332    2.5150 C.3       1 UNK         0.0824 
      6 C6         27.6979   22.1478    1.0040 C.3       12 UNK        -0.0944 
      7 S7         28.5991   23.5351    0.2154 S.3       12 UNK        -0.2672 
      8 C8         30.2481   22.7890    0.0223 C.3       12 UNK         0.0333 
      9 C9         31.3436   23.8420   -0.0225 C.ar      12 UNK        -0.0807 
     10 C10        32.2148   23.9942    1.0619 C.ar      12 UNK        -0.0894 
     11 C11        33.2491   24.9335    1.0144 C.ar      12 UNK        -0.0804 
     12 C12        33.4052   25.7244   -0.1282 C.ar      12 UNK        -0.0824 
     13 C13        32.5498   25.5709   -1.2242 C.ar      12 UNK        -0.0762 
     14 C14        31.5156   24.6323   -1.1636 C.ar      12 UNK        -0.0782 
     15 C15        32.7813   26.3873   -2.4872 C.3       12 UNK         0.0230 
     16 S16        31.7881   27.9098   -2.4996 S.3       12 UNK        -0.2608 
     17 C17        30.4651   27.5005   -3.7003 C.3       12 UNK        -0.0989 
     18 CA         29.1033   28.1705   -3.3836 C.3       5 UNK         0.0716 
     19 N          28.6214   27.7631   -2.0686 N.am      5 UNK        -0.4135 
     20 C          27.4177   28.0161   -1.5435 C.2       4 UNK         0.5031 
     21 O          26.4832   28.5089   -2.1762 O.2       4 UNK        -0.5229 
     22 CA         27.2332   27.6798   -0.0504 C.3       4 UNK         0.0329 
     23 CB         26.2734   26.4921    0.1238 C.3       4 UNK        -0.2001 
     24 N          28.4800   27.4094    0.6826 N.am      4 UNK        -0.4303 
     25 C          29.4999   28.2659    0.8496 C.2       3 UNK         0.5044 
     26 O          29.5524   29.3675    0.2998 O.2       3 UNK        -0.5152 
     27 CA         30.6925   27.8124    1.7108 C.3       3 UNK         0.0319 
     28 CB         31.1764   28.9332    2.6527 C.3       3 UNK        -0.2001 
     29 N          30.5058   26.5547    2.4480 N.am      3 UNK        -0.4354 
     30 C          29.6324   26.2887    3.4279 C.2       2 UNK         0.4964 
     31 O          28.7357   27.0517    3.7874 O.2       2 UNK        -0.5047 
     32 CA         29.7353   24.9097    4.0810 C.3       2 UNK         0.0288 
     33 CB         29.7217   24.9926    5.6177 C.3       2 UNK        -0.2113 
     34 N          28.5904   24.1513    3.6009 N.am      2 UNK        -0.4145 
     35 C          28.5862   22.8433    3.3276 C.2       1 UNK         0.5006 
     36 O          29.5010   22.0690    3.6218 O.2       1 UNK        -0.5103 
     37 C          29.1745   29.7055   -3.5690 C.2       5 UNK         0.5055 
     38 O          29.0542   30.1633   -4.7073 O.2       5 UNK        -0.5220 
     39 N          29.3901   30.4675   -2.4833 N.am      6 UNK        -0.4450 
     40 CA         29.6242   31.9150   -2.5398 C.3       6 UNK         0.0367 
     41 CB         31.1312   32.1809   -2.7088 C.3       6 UNK        -0.1929 
     42 C          29.0741   32.6942   -1.3345 C.2       6 UNK         0.5070 
     43 O          28.7818   33.8811   -1.4875 O.2       6 UNK        -0.5237 
     44 N          28.9510   32.0566   -0.1658 N.am      7 UNK        -0.4739 
     45 CA         28.4830   32.6667    1.0776 C.3       7 UNK         0.0276 
     46 CB         29.6791   33.2910    1.8310 C.3       7 UNK        -0.1927 
     47 C          27.7111   31.6017    1.8707 C.2       7 UNK         0.5013 
     48 O          26.8276   30.9605    1.3000 O.2       7 UNK        -0.5193 
     49 N          28.0518   31.4160    3.1500 N.am      8 UNK        -0.4253 
     50 CA         27.5570   30.3547    4.0195 C.3       8 UNK         0.0242 
     51 CB         26.1041   30.6288    4.4536 C.3       8 UNK        -0.2000 
     52 C          28.4734   30.2755    5.2437 C.2       8 UNK         0.4948 
     53 O          28.9906   31.3065    5.6792 O.2       8 UNK        -0.5275 
     54 N          28.6568   29.0601    5.7728 N.am      9 UNK        -0.4246 
     55 CA         29.3095   28.6834    7.0372 C.3       9 UNK         0.0261 
     56 CB         28.5520   29.2916    8.2343 C.3       9 UNK        -0.1959 
     57 C          30.8214   28.9625    7.1591 C.2       9 UNK         0.5033 
     58 O          31.4533   28.3613    8.0278 O.2       9 UNK        -0.5390 
     59 N          31.3778   29.8455    6.3197 N.am      10 UNK        -0.4215 
     60 CA         32.7440   30.3831    6.3846 C.3       10 UNK         0.0240 
     61 CB         32.9757   31.3130    5.1818 C.3       10 UNK        -0.1982 
     62 C          33.8838   29.3509    6.4920 C.2       10 UNK         0.4970 
     63 O          34.8680   29.6259    7.1799 O.2       10 UNK        -0.4916 
     64 N          33.7349   28.1987    5.8279 N.am      11 UNK        -0.4279 
     65 CA         34.6739   27.0652    5.8866 C.3       11 UNK         0.1003 
     66 C          34.2960   25.9737    6.9318 C.2       11 UNK         0.5709 
     67 N          33.2545   26.1428    7.7379 N.am      11 UNK        -0.7358 
     68 O          34.9783   24.9566    7.0330 O.2       11 UNK        -0.4999 
     69 C69        34.9599   26.4831    4.4760 C.3       12 UNK        -0.0954 
     70 S70        33.4720   25.9162    3.5931 S.3       12 UNK        -0.2268 
     71 C71        34.2253   25.0670    2.1753 C.3       12 UNK         0.0203 
     72 H72        24.7312   19.5491    4.8552 H         1 UNK         0.0888 
     73 H73        26.1284   18.8384    4.0450 H         1 UNK         0.0888 
     74 H74        26.2715   19.4116    5.7078 H         1 UNK         0.0888 
     75 H75        27.1072   20.2421    2.6038 H         1 UNK         0.3017 
     76 H76        26.5815   23.0800    2.5880 H         1 UNK         0.0873 
     77 H77        28.2648   21.2277    0.8511 H         1 UNK         0.0745 
     78 H78        26.7664   22.0060    0.4537 H         1 UNK         0.0745 
     79 H79        30.4380   22.0958    0.8434 H         1 UNK         0.0705 
     80 H80        30.2682   22.1935   -0.8916 H         1 UNK         0.0705 
     81 H81        32.1006   23.3698    1.9382 H         1 UNK         0.1334 
     82 H82        34.2090   26.4467   -0.1751 H         1 UNK         0.1417 
     83 H83        30.8537   24.5030   -2.0093 H         1 UNK         0.1562 
     84 H84        32.5749   25.7846   -3.3728 H         1 UNK         0.0748 
     85 H85        33.8341   26.6644   -2.5598 H         1 UNK         0.0748 
     86 H86        30.3279   26.4185   -3.7282 H         1 UNK         0.0940 
     87 H87        30.8049   27.7770   -4.7005 H         1 UNK         0.0940 
     88 H88        28.3763   27.8043   -4.1116 H         1 UNK         0.0703 
     89 H89        29.3195   27.3644   -1.4588 H         1 UNK         0.3081 
     90 H90        26.7720   28.5510    0.4151 H         1 UNK         0.0719 
     91 H91        25.2951   26.7197   -0.3017 H         1 UNK         0.0809 
     92 H92        26.1184   26.2516    1.1756 H         1 UNK         0.0809 
     93 H93        26.6416   25.5988   -0.3798 H         1 UNK         0.0809 
     94 H94        28.5441   26.5154    1.1459 H         1 UNK         0.2990 
     95 H95        31.4982   27.6193    1.0016 H         1 UNK         0.0690 
     96 H96        30.4190   29.1965    3.3876 H         1 UNK         0.0788 
     97 H97        31.4191   29.8402    2.0975 H         1 UNK         0.0788 
     98 H98        32.0774   28.6361    3.1876 H         1 UNK         0.0788 
     99 H99        31.1748   25.8348    2.2052 H         1 UNK         0.2993 
    100 H100       30.6640   24.4302    3.7637 H         1 UNK         0.0949 
    101 H101       30.5464   25.6069    5.9822 H         1 UNK         0.0767 
    102 H102       28.7932   25.4251    5.9922 H         1 UNK         0.0767 
    103 H103       29.8313   24.0044    6.0646 H         1 UNK         0.0767 
    104 H104       27.7943   24.7137    3.3316 H         1 UNK         0.3013 
    105 H105       29.4748   30.0167   -1.5773 H         1 UNK         0.3121 
    106 H106       29.1086   32.3249   -3.4111 H         1 UNK         0.0774 
    107 H107       31.3401   33.2509   -2.7473 H         1 UNK         0.0815 
    108 H108       31.7057   31.7635   -1.8809 H         1 UNK         0.0815 
    109 H109       31.5105   31.7443   -3.6327 H         1 UNK         0.0815 
    110 H110       29.1695   31.0643   -0.0890 H         1 UNK         0.2987 
    111 H111       27.7635   33.4564    0.8502 H         1 UNK         0.0949 
    112 H112       30.4239   32.5416    2.1030 H         1 UNK         0.0806 
    113 H113       30.1789   34.0407    1.2173 H         1 UNK         0.0806 
    114 H114       29.3579   33.7967    2.7425 H         1 UNK         0.0806 
    115 H115       28.7738   31.9897    3.5679 H         1 UNK         0.3010 
    116 H116       27.6025   29.4104    3.4730 H         1 UNK         0.0829 
    117 H117       25.4243   30.6398    3.6017 H         1 UNK         0.0813 
    118 H118       25.7484   29.8561    5.1365 H         1 UNK         0.0813 
    119 H119       26.0131   31.5867    4.9672 H         1 UNK         0.0813 
    120 H120       28.3209   28.2712    5.2244 H         1 UNK         0.3038 
    121 H121       29.2040   27.6002    7.1043 H         1 UNK         0.0769 
    122 H122       28.6177   30.3801    8.2458 H         1 UNK         0.0811 
    123 H123       28.9612   28.9330    9.1799 H         1 UNK         0.0811 
    124 H124       27.4968   29.0191    8.2160 H         1 UNK         0.0811 
    125 H125       30.7264   30.3516    5.7298 H         1 UNK         0.3204 
    126 H126       32.7885   30.9917    7.2899 H         1 UNK         0.0748 
    127 H127       33.9645   31.7718    5.2270 H         1 UNK         0.0771 
    128 H128       32.9102   30.7753    4.2358 H         1 UNK         0.0771 
    129 H129       32.2464   32.1232    5.1586 H         1 UNK         0.0771 
    130 H130       32.8878   28.0399    5.3044 H         1 UNK         0.2980 
    131 H131       35.6347   27.4404    6.2426 H         1 UNK         0.0545 
    132 H132       32.6994   26.9943    7.7233 H         1 UNK         0.3459 
    133 H133       33.0403   25.4246    8.4103 H         1 UNK         0.3459 
    134 H134       35.4382   27.2477    3.8620 H         1 UNK         0.0616 
    135 H135       35.6752   25.6606    4.5338 H         1 UNK         0.0616 
    136 H136       35.1146   25.6140    1.8579 H         1 UNK         0.0634 
    137 H137       34.5666   24.0794    2.4888 H         1 UNK         0.0634 
@<TRIPOS>BOND
     1    1    2 1    
     2    1   72 1    
     3    1   73 1    
     4    1   74 1    
     5    2    3 2    
     6    2    4 am   BACKBONE|DICT|INTERRES
     7    4    5 1    
     8    4   75 1    
     9    5    6 1    
    10    5   35 1    
    11    5   76 1    
    12    6    7 1    
    13    6   77 1    
    14    6   78 1    
    15    7    8 1    
    16    8    9 1    
    17    8   79 1    
    18    8   80 1    
    19    9   10 ar   
    20    9   14 ar   
    21   10   11 ar   
    22   10   81 1    
    23   11   12 ar   
    24   11   71 1    
    25   12   13 ar   
    26   12   82 1    
    27   13   14 ar   
    28   13   15 1    
    29   14   83 1    
    30   15   16 1    
    31   15   84 1    
    32   15   85 1    
    33   16   17 1    
    34   17   18 1    
    35   17   86 1    
    36   17   87 1    
    37   18   19 1    
    38   18   37 1    
    39   18   88 1    
    40   19   20 am   BACKBONE|DICT|INTERRES
    41   19   89 1    
    42   20   21 2    
    43   20   22 1    
    44   22   23 1    
    45   22   24 1    
    46   22   90 1    
    47   23   91 1    
    48   23   92 1    
    49   23   93 1    
    50   24   25 am   BACKBONE|DICT|INTERRES
    51   24   94 1    
    52   25   26 2    
    53   25   27 1    
    54   27   28 1    
    55   27   29 1    
    56   27   95 1    
    57   28   96 1    
    58   28   97 1    
    59   28   98 1    
    60   29   30 am   BACKBONE|DICT|INTERRES
    61   29   99 1    
    62   30   31 2    
    63   30   32 1    
    64   32   33 1    
    65   32   34 1    
    66   32  100 1    
    67   33  101 1    
    68   33  102 1    
    69   33  103 1    
    70   34   35 am   BACKBONE|DICT|INTERRES
    71   34  104 1    
    72   35   36 2    
    73   37   38 2    
    74   37   39 am   BACKBONE|DICT|INTERRES
    75   39   40 1    
    76   39  105 1    
    77   40   41 1    
    78   40   42 1    
    79   40  106 1    
    80   41  107 1    
    81   41  108 1    
    82   41  109 1    
    83   42   43 2    
    84   42   44 am   BACKBONE|DICT|INTERRES
    85   44   45 1    
    86   44  110 1    
    87   45   46 1    
    88   45   47 1    
    89   45  111 1    
    90   46  112 1    
    91   46  113 1    
    92   46  114 1    
    93   47   48 2    
    94   47   49 am   BACKBONE|DICT|INTERRES
    95   49   50 1    
    96   49  115 1    
    97   50   51 1    
    98   50   52 1    
    99   50  116 1    
   100   51  117 1    
   101   51  118 1    
   102   51  119 1    
   103   52   53 2    
   104   52   54 am   BACKBONE|DICT|INTERRES
   105   54   55 1    
   106   54  120 1    
   107   55   56 1    
   108   55   57 1    
   109   55  121 1    
   110   56  122 1    
   111   56  123 1    
   112   56  124 1    
   113   57   58 2    
   114   57   59 am   BACKBONE|DICT|INTERRES
   115   59   60 1    
   116   59  125 1    
   117   60   61 1    
   118   60   62 1    
   119   60  126 1    
   120   61  127 1    
   121   61  128 1    
   122   61  129 1    
   123   62   63 2    
   124   62   64 am   BACKBONE|DICT|INTERRES
   125   64   65 1    
   126   64  130 1    
   127   65   66 1    
   128   65   69 1    
   129   65  131 1    
   130   66   67 am   BACKBONE|DICT|INTERRES
   131   66   68 2    
   132   67  132 1    
   133   67  133 1    
   134   69   70 1    
   135   69  134 1    
   136   69  135 1    
   137   70   71 1    
   138   71  136 1    
   139   71  137 1    
@<TRIPOS>SUBSTRUCTURE
     1 UNK         1 GROUP             0       ****    0 ROOT    
