@<TRIPOS>MOLECULE
3R136
137   139    1
SMALL
USER_CHARGES


@<TRIPOS>ATOM
      1 CA         28.1550   22.2847   -1.7503 C.3       0 UNK        -0.1979 
      2 C          29.3829   23.1233   -2.0722 C.2       0 UNK         0.4864 
      3 O          29.9816   22.9474   -3.1342 O.2       0 UNK        -0.5359 
      4 N          29.7580   24.0250   -1.1587 N.am      1 UNK        -0.4318 
      5 CA         30.8841   24.9489   -1.3003 C.3       1 UNK         0.0824 
      6 C6         31.6342   25.1510    0.0411 C.3       12 UNK        -0.0944 
      7 S7         32.8673   23.8355    0.3130 S.3       12 UNK        -0.2672 
      8 C8         31.9316   22.5944    1.2698 C.3       12 UNK         0.0333 
      9 C9         31.5814   23.0269    2.6912 C.ar      12 UNK        -0.0807 
     10 C10        32.4944   23.7311    3.4849 C.ar      12 UNK        -0.0894 
     11 C11        32.1631   24.1107    4.7890 C.ar      12 UNK        -0.0804 
     12 C12        30.9151   23.7588    5.3111 C.ar      12 UNK        -0.0824 
     13 C13        30.0063   23.0249    4.5438 C.ar      12 UNK        -0.0762 
     14 C14        30.3431   22.6691    3.2335 C.ar      12 UNK        -0.0782 
     15 C15        28.6894   22.5635    5.1544 C.3       12 UNK         0.0230 
     16 S16        27.2358   23.0974    4.1999 S.3       12 UNK        -0.2608 
     17 C17        27.1622   24.8880    4.5599 C.3       12 UNK        -0.0989 
     18 CA         27.2597   25.7814    3.2926 C.3       5 UNK         0.0716 
     19 N          26.3173   25.3432    2.2619 N.am      5 UNK        -0.4135 
     20 C          26.6434   25.0165    1.0094 C.2       4 UNK         0.5031 
     21 O          27.7907   25.0443    0.5574 O.2       4 UNK        -0.5229 
     22 CA         25.4827   24.6389    0.0707 C.3       4 UNK         0.0329 
     23 CB         24.2608   24.0134    0.7820 C.3       4 UNK        -0.2001 
     24 N          25.1153   25.8035   -0.7378 N.am      4 UNK        -0.4303 
     25 C          24.6807   26.9878   -0.2788 C.2       3 UNK         0.5044 
     26 O          24.2742   27.1804    0.8694 O.2       3 UNK        -0.5152 
     27 CA         24.8704   28.1699   -1.2495 C.3       3 UNK         0.0319 
     28 CB         24.4588   29.5257   -0.6406 C.3       3 UNK        -0.2001 
     29 N          26.2545   28.2231   -1.7509 N.am      3 UNK        -0.4354 
     30 C          27.3756   28.2402   -1.0099 C.2       2 UNK         0.4964 
     31 O          27.4007   28.3280    0.2203 O.2       2 UNK        -0.5047 
     32 CA         28.6960   28.0953   -1.7667 C.3       2 UNK         0.0288 
     33 CB         29.6069   29.3169   -1.5371 C.3       2 UNK        -0.2113 
     34 N          29.3331   26.8602   -1.3116 N.am      2 UNK        -0.4145 
     35 C          30.3932   26.2818   -1.8921 C.2       1 UNK         0.5006 
     36 O          30.9683   26.7450   -2.8790 O.2       1 UNK        -0.5103 
     37 C          27.0193   27.2588    3.6812 C.2       5 UNK         0.5055 
     38 O          27.8138   27.8028    4.4489 O.2       5 UNK        -0.5220 
     39 N          25.9169   27.8757    3.2216 N.am      6 UNK        -0.4450 
     40 CA         25.3960   29.1321    3.7720 C.3       6 UNK         0.0367 
     41 CB         23.9226   29.3018    3.3682 C.3       6 UNK        -0.1929 
     42 C          26.2019   30.3860    3.3999 C.2       6 UNK         0.5070 
     43 O          26.1816   31.3492    4.1671 O.2       6 UNK        -0.5237 
     44 N          26.8857   30.3679    2.2499 N.am      7 UNK        -0.4739 
     45 CA         27.7036   31.4793    1.7540 C.3       7 UNK         0.0276 
     46 CB         27.1823   31.9101    0.3714 C.3       7 UNK        -0.1927 
     47 C          29.1958   31.1128    1.7111 C.2       7 UNK         0.5013 
     48 O          29.9865   31.8655    1.1385 O.2       7 UNK        -0.5193 
     49 N          29.5719   29.9733    2.3092 N.am      8 UNK        -0.4253 
     50 CA         30.9345   29.4417    2.3495 C.3       8 UNK         0.0242 
     51 CB         30.8664   27.9274    2.6195 C.3       8 UNK        -0.2000 
     52 C          31.8166   30.2010    3.3600 C.2       8 UNK         0.4948 
     53 O          32.2659   29.6291    4.3527 O.2       8 UNK        -0.5275 
     54 N          32.0651   31.4884    3.0824 N.am      9 UNK        -0.4246 
     55 CA         32.8878   32.3963    3.8935 C.3       9 UNK         0.0261 
     56 CB         32.8211   33.8101    3.2947 C.3       9 UNK        -0.1959 
     57 C          34.3527   31.9457    4.0525 C.2       9 UNK         0.5033 
     58 O          34.9855   32.2833    5.0546 O.2       9 UNK        -0.5390 
     59 N          34.8490   31.1564    3.0884 N.am      10 UNK        -0.4215 
     60 CA         36.1672   30.5159    3.0917 C.3       10 UNK         0.0240 
     61 CB         36.3744   29.7954    1.7491 C.3       10 UNK        -0.1982 
     62 C          36.4014   29.5422    4.2642 C.2       10 UNK         0.4970 
     63 O          37.5598   29.2663    4.5794 O.2       10 UNK        -0.4916 
     64 N          35.3243   29.0514    4.8941 N.am      11 UNK        -0.4279 
     65 CA         35.3756   28.2288    6.1127 C.3       11 UNK         0.1003 
     66 C          35.8209   29.0075    7.3867 C.2       11 UNK         0.5709 
     67 N          35.8429   30.3370    7.3885 N.am      11 UNK        -0.7358 
     68 O          36.1598   28.3896    8.3933 O.2       11 UNK        -0.4999 
     69 C69        34.0352   27.4920    6.3706 C.3       12 UNK        -0.0954 
     70 S70        33.4481   26.5397    4.9299 S.3       12 UNK        -0.2268 
     71 C71        33.1561   24.8926    5.6366 C.3       12 UNK         0.0203 
     72 H72        28.3580   21.2316   -1.9435 H         1 UNK         0.0888 
     73 H73        27.8621   22.3816   -0.7049 H         1 UNK         0.0888 
     74 H74        27.3162   22.5909   -2.3745 H         1 UNK         0.0888 
     75 H75        29.1578   24.1879   -0.3528 H         1 UNK         0.3017 
     76 H76        31.5941   24.5438   -2.0253 H         1 UNK         0.0873 
     77 H77        32.1862   26.0933    0.0455 H         1 UNK         0.0745 
     78 H78        30.9433   25.2044    0.8848 H         1 UNK         0.0745 
     79 H79        31.0309   22.3317    0.7137 H         1 UNK         0.0705 
     80 H80        32.5302   21.6848    1.3290 H         1 UNK         0.0705 
     81 H81        33.4640   23.9975    3.0872 H         1 UNK         0.1334 
     82 H82        30.6600   24.0379    6.3245 H         1 UNK         0.1417 
     83 H83        29.6400   22.0982    2.6420 H         1 UNK         0.1562 
     84 H84        28.5870   22.9084    6.1845 H         1 UNK         0.0748 
     85 H85        28.6927   21.4736    5.1986 H         1 UNK         0.0748 
     86 H86        27.9567   25.1493    5.2620 H         1 UNK         0.0940 
     87 H87        26.2245   25.0710    5.0888 H         1 UNK         0.0940 
     88 H88        28.2831   25.7194    2.9157 H         1 UNK         0.0703 
     89 H89        25.3449   25.2997    2.5290 H         1 UNK         0.3081 
     90 H90        25.8731   23.8914   -0.6200 H         1 UNK         0.0719 
     91 H91        23.7481   24.7084    1.4466 H         1 UNK         0.0809 
     92 H92        23.5289   23.6623    0.0546 H         1 UNK         0.0809 
     93 H93        24.5585   23.1492    1.3778 H         1 UNK         0.0809 
     94 H94        25.4419   25.7767   -1.6934 H         1 UNK         0.2990 
     95 H95        24.2237   27.9790   -2.1073 H         1 UNK         0.0690 
     96 H96        24.5773   30.3359   -1.3598 H         1 UNK         0.0788 
     97 H97        25.0531   29.7709    0.2380 H         1 UNK         0.0788 
     98 H98        23.4127   29.5137   -0.3328 H         1 UNK         0.0788 
     99 H99        26.3502   28.1568   -2.7552 H         1 UNK         0.2993 
    100 H100       28.4899   28.0073   -2.8355 H         1 UNK         0.0949 
    101 H101       30.4918   29.2858   -2.1722 H         1 UNK         0.0767 
    102 H102       29.0854   30.2476   -1.7626 H         1 UNK         0.0767 
    103 H103       29.9437   29.3692   -0.5039 H         1 UNK         0.0767 
    104 H104       28.8791   26.4041   -0.5242 H         1 UNK         0.3013 
    105 H105       25.3593   27.4415    2.4910 H         1 UNK         0.3121 
    106 H106       25.4282   29.0489    4.8608 H         1 UNK         0.0774 
    107 H107       23.8081   29.4149    2.2907 H         1 UNK         0.0815 
    108 H108       23.4906   30.1886    3.8340 H         1 UNK         0.0815 
    109 H109       23.3226   28.4472    3.6807 H         1 UNK         0.0815 
    110 H110       26.8803   29.5277    1.6745 H         1 UNK         0.2987 
    111 H111       27.6267   32.3420    2.4189 H         1 UNK         0.0949 
    112 H112       26.1366   32.2137    0.4218 H         1 UNK         0.0806 
    113 H113       27.2610   31.1073   -0.3599 H         1 UNK         0.0806 
    114 H114       27.7452   32.7604   -0.0157 H         1 UNK         0.0806 
    115 H115       28.8643   29.4382    2.7943 H         1 UNK         0.3010 
    116 H116       31.3887   29.5761    1.3659 H         1 UNK         0.0829 
    117 H117       31.8558   27.4747    2.5477 H         1 UNK         0.0813 
    118 H118       30.2265   27.4233    1.8948 H         1 UNK         0.0813 
    119 H119       30.4804   27.7091    3.6162 H         1 UNK         0.0813 
    120 H120       31.5975   31.8839    2.2708 H         1 UNK         0.3038 
    121 H121       32.4505   32.4259    4.8936 H         1 UNK         0.0769 
    122 H122       33.2193   33.8379    2.2796 H         1 UNK         0.0811 
    123 H123       33.4005   34.5153    3.8924 H         1 UNK         0.0811 
    124 H124       31.7960   34.1800    3.2635 H         1 UNK         0.0811 
    125 H125       34.2466   30.9429    2.3073 H         1 UNK         0.3204 
    126 H126       36.9147   31.3072    3.1774 H         1 UNK         0.0748 
    127 H127       37.3621   29.3342    1.7013 H         1 UNK         0.0771 
    128 H128       35.6385   29.0043    1.5980 H         1 UNK         0.0771 
    129 H129       36.3031   30.4878    0.9100 H         1 UNK         0.0771 
    130 H130       34.3953   29.3097    4.5820 H         1 UNK         0.2980 
    131 H131       36.1364   27.4633    5.9485 H         1 UNK         0.0545 
    132 H132       36.1375   30.8219    8.2209 H         1 UNK         0.3459 
    133 H133       35.5659   30.8646    6.5696 H         1 UNK         0.3459 
    134 H134       33.2535   28.2078    6.6315 H         1 UNK         0.0616 
    135 H135       34.1344   26.8234    7.2274 H         1 UNK         0.0616 
    136 H136       32.7838   24.9942    6.6571 H         1 UNK         0.0634 
    137 H137       34.1010   24.3511    5.6980 H         1 UNK         0.0634 
@<TRIPOS>BOND
     1    1    2 1    
     2    1   72 1    
     3    1   73 1    
     4    1   74 1    
     5    2    3 2    
     6    2    4 am   BACKBONE|DICT|INTERRES
     7    4    5 1    
     8    4   75 1    
     9    5    6 1    
    10    5   35 1    
    11    5   76 1    
    12    6    7 1    
    13    6   77 1    
    14    6   78 1    
    15    7    8 1    
    16    8    9 1    
    17    8   79 1    
    18    8   80 1    
    19    9   10 ar   
    20    9   14 ar   
    21   10   11 ar   
    22   10   81 1    
    23   11   12 ar   
    24   11   71 1    
    25   12   13 ar   
    26   12   82 1    
    27   13   14 ar   
    28   13   15 1    
    29   14   83 1    
    30   15   16 1    
    31   15   84 1    
    32   15   85 1    
    33   16   17 1    
    34   17   18 1    
    35   17   86 1    
    36   17   87 1    
    37   18   19 1    
    38   18   37 1    
    39   18   88 1    
    40   19   20 am   BACKBONE|DICT|INTERRES
    41   19   89 1    
    42   20   21 2    
    43   20   22 1    
    44   22   23 1    
    45   22   24 1    
    46   22   90 1    
    47   23   91 1    
    48   23   92 1    
    49   23   93 1    
    50   24   25 am   BACKBONE|DICT|INTERRES
    51   24   94 1    
    52   25   26 2    
    53   25   27 1    
    54   27   28 1    
    55   27   29 1    
    56   27   95 1    
    57   28   96 1    
    58   28   97 1    
    59   28   98 1    
    60   29   30 am   BACKBONE|DICT|INTERRES
    61   29   99 1    
    62   30   31 2    
    63   30   32 1    
    64   32   33 1    
    65   32   34 1    
    66   32  100 1    
    67   33  101 1    
    68   33  102 1    
    69   33  103 1    
    70   34   35 am   BACKBONE|DICT|INTERRES
    71   34  104 1    
    72   35   36 2    
    73   37   38 2    
    74   37   39 am   BACKBONE|DICT|INTERRES
    75   39   40 1    
    76   39  105 1    
    77   40   41 1    
    78   40   42 1    
    79   40  106 1    
    80   41  107 1    
    81   41  108 1    
    82   41  109 1    
    83   42   43 2    
    84   42   44 am   BACKBONE|DICT|INTERRES
    85   44   45 1    
    86   44  110 1    
    87   45   46 1    
    88   45   47 1    
    89   45  111 1    
    90   46  112 1    
    91   46  113 1    
    92   46  114 1    
    93   47   48 2    
    94   47   49 am   BACKBONE|DICT|INTERRES
    95   49   50 1    
    96   49  115 1    
    97   50   51 1    
    98   50   52 1    
    99   50  116 1    
   100   51  117 1    
   101   51  118 1    
   102   51  119 1    
   103   52   53 2    
   104   52   54 am   BACKBONE|DICT|INTERRES
   105   54   55 1    
   106   54  120 1    
   107   55   56 1    
   108   55   57 1    
   109   55  121 1    
   110   56  122 1    
   111   56  123 1    
   112   56  124 1    
   113   57   58 2    
   114   57   59 am   BACKBONE|DICT|INTERRES
   115   59   60 1    
   116   59  125 1    
   117   60   61 1    
   118   60   62 1    
   119   60  126 1    
   120   61  127 1    
   121   61  128 1    
   122   61  129 1    
   123   62   63 2    
   124   62   64 am   BACKBONE|DICT|INTERRES
   125   64   65 1    
   126   64  130 1    
   127   65   66 1    
   128   65   69 1    
   129   65  131 1    
   130   66   67 am   BACKBONE|DICT|INTERRES
   131   66   68 2    
   132   67  132 1    
   133   67  133 1    
   134   69   70 1    
   135   69  134 1    
   136   69  135 1    
   137   70   71 1    
   138   71  136 1    
   139   71  137 1    
@<TRIPOS>SUBSTRUCTURE
     1 UNK         1 GROUP             0       ****    0 ROOT    
