@<TRIPOS>MOLECULE
3R136
137   139    1
SMALL
USER_CHARGES


@<TRIPOS>ATOM
      1 CA         30.7169   27.5766   -1.5042 C.3       0 UNK        -0.1979 
      2 C          30.9000   26.0756   -1.3411 C.2       0 UNK         0.4864 
      3 O          31.4945   25.4407   -2.2128 O.2       0 UNK        -0.5359 
      4 N          30.3562   25.4973   -0.2604 N.am      1 UNK        -0.4318 
      5 CA         30.3435   24.0697    0.0931 C.3       1 UNK         0.0824 
      6 C6         31.7616   23.4390    0.2036 C.3       12 UNK        -0.0944 
      7 S7         31.7682   21.7140    0.8044 S.3       12 UNK        -0.2672 
      8 C8         32.2518   21.9108    2.5516 C.3       12 UNK         0.0333 
      9 C9         31.2223   22.6659    3.3866 C.ar      12 UNK        -0.0807 
     10 C10        31.6405   23.6748    4.2587 C.ar      12 UNK        -0.0894 
     11 C11        30.7167   24.3698    5.0464 C.ar      12 UNK        -0.0804 
     12 C12        29.3609   24.0362    4.9632 C.ar      12 UNK        -0.0824 
     13 C13        28.9271   23.0275    4.0966 C.ar      12 UNK        -0.0762 
     14 C14        29.8634   22.3418    3.3185 C.ar      12 UNK        -0.0782 
     15 C15        27.4538   22.6558    4.0079 C.3       12 UNK         0.0230 
     16 S16        26.5355   23.7721    2.8987 S.3       12 UNK        -0.2608 
     17 C17        26.1642   25.1695    4.0092 C.3       12 UNK        -0.0989 
     18 CA         26.9596   26.4502    3.6450 C.3       5 UNK         0.0716 
     19 N          26.4799   27.0558    2.4031 N.am      5 UNK        -0.4135 
     20 C          27.1991   27.2455    1.2940 C.2       4 UNK         0.5031 
     21 O          28.3593   26.8596    1.1375 O.2       4 UNK        -0.5229 
     22 CA         26.5250   28.0924    0.2015 C.3       4 UNK         0.0329 
     23 CB         26.9790   29.5582    0.3190 C.3       4 UNK        -0.2001 
     24 N          26.8103   27.6100   -1.1512 N.am      4 UNK        -0.4303 
     25 C          26.3727   26.4511   -1.6634 C.2       3 UNK         0.5044 
     26 O          25.6707   25.6523   -1.0423 O.2       3 UNK        -0.5152 
     27 CA         26.7596   26.1292   -3.1180 C.3       3 UNK         0.0319 
     28 CB         27.3174   27.3326   -3.9066 C.3       3 UNK        -0.2001 
     29 N          27.7556   25.0629   -3.1094 N.am      3 UNK        -0.4354 
     30 C          27.5272   23.7690   -3.3727 C.2       2 UNK         0.4964 
     31 O          26.4495   23.3203   -3.7649 O.2       2 UNK        -0.5047 
     32 CA         28.7124   22.8085   -3.1585 C.3       2 UNK         0.0288 
     33 CB         29.4864   22.6014   -4.4703 C.3       2 UNK        -0.2113 
     34 N          29.6324   23.2949   -2.1273 N.am      2 UNK        -0.4145 
     35 C          29.3761   23.2784   -0.8123 C.2       1 UNK         0.5006 
     36 O          28.4021   22.7103   -0.3168 O.2       1 UNK        -0.5103 
     37 C          26.8287   27.5365    4.7264 C.2       5 UNK         0.5055 
     38 O          25.9720   27.4359    5.6072 O.2       5 UNK        -0.5220 
     39 N          27.6315   28.5966    4.5979 N.am      6 UNK        -0.4450 
     40 CA         27.5973   29.7951    5.4303 C.3       6 UNK         0.0367 
     41 CB         26.4154   30.6918    5.0059 C.3       6 UNK        -0.1929 
     42 C          28.9293   30.5338    5.2731 C.2       6 UNK         0.5070 
     43 O          29.7342   30.1668    4.4138 O.2       6 UNK        -0.5237 
     44 N          29.1181   31.6015    6.0613 N.am      7 UNK        -0.4739 
     45 CA         30.3081   32.4656    6.0619 C.3       7 UNK         0.0276 
     46 CB         30.1262   33.5802    7.1041 C.3       7 UNK        -0.1927 
     47 C          30.6719   33.0679    4.6909 C.2       7 UNK         0.5013 
     48 O          31.8501   33.3210    4.4427 O.2       7 UNK        -0.5193 
     49 N          29.6766   33.2188    3.8044 N.am      8 UNK        -0.4253 
     50 CA         29.8335   33.6007    2.3969 C.3       8 UNK         0.0242 
     51 CB         28.4420   33.7337    1.7566 C.3       8 UNK        -0.2000 
     52 C          30.7087   32.6342    1.5721 C.2       8 UNK         0.4948 
     53 O          31.3118   33.0683    0.5903 O.2       8 UNK        -0.5275 
     54 N          30.7863   31.3599    1.9856 N.am      9 UNK        -0.4246 
     55 CA         31.6724   30.3499    1.4017 C.3       9 UNK         0.0261 
     56 CB         31.0951   28.9556    1.6974 C.3       9 UNK        -0.1959 
     57 C          33.1157   30.4356    1.9320 C.2       9 UNK         0.5033 
     58 O          33.9860   29.7599    1.3821 O.2       9 UNK        -0.5390 
     59 N          33.3393   31.2135    3.0055 N.am      10 UNK        -0.4215 
     60 CA         34.5839   31.3442    3.7758 C.3       10 UNK         0.0240 
     61 CB         35.6965   31.9919    2.9238 C.3       10 UNK        -0.1982 
     62 C          35.0359   30.0317    4.4521 C.2       10 UNK         0.4970 
     63 O          36.2207   29.8828    4.7565 O.2       10 UNK        -0.4916 
     64 N          34.0924   29.1081    4.6822 N.am      11 UNK        -0.4279 
     65 CA         34.3350   27.7842    5.2718 C.3       11 UNK         0.1003 
     66 C          34.4298   27.7601    6.8261 C.2       11 UNK         0.5709 
     67 N          34.1962   28.8647    7.5255 N.am      11 UNK        -0.7358 
     68 O          34.7387   26.7222    7.4068 O.2       11 UNK        -0.4999 
     69 C69        33.3502   26.7278    4.7054 C.3       12 UNK        -0.0954 
     70 S70        31.5962   27.0089    5.1435 S.3       12 UNK        -0.2268 
     71 C71        31.1785   25.4600    6.0075 C.3       12 UNK         0.0203 
     72 H72        30.4957   27.8197   -2.5427 H         1 UNK         0.0888 
     73 H73        29.9017   27.9542   -0.8887 H         1 UNK         0.0888 
     74 H74        31.6328   28.0975   -1.2273 H         1 UNK         0.0888 
     75 H75        29.7832   26.0730    0.3590 H         1 UNK         0.3017 
     76 H76        29.9045   24.0471    1.0916 H         1 UNK         0.0873 
     77 H77        32.2657   23.4445   -0.7633 H         1 UNK         0.0745 
     78 H78        32.3819   24.0472    0.8638 H         1 UNK         0.0745 
     79 H79        33.2243   22.4041    2.5909 H         1 UNK         0.0705 
     80 H80        32.3916   20.9208    2.9875 H         1 UNK         0.0705 
     81 H81        32.6916   23.9110    4.3268 H         1 UNK         0.1334 
     82 H82        28.6434   24.5601    5.5782 H         1 UNK         0.1417 
     83 H83        29.5326   21.5575    2.6508 H         1 UNK         0.1562 
     84 H84        27.0027   22.6461    5.0011 H         1 UNK         0.0748 
     85 H85        27.3505   21.6382    3.6279 H         1 UNK         0.0748 
     86 H86        26.3636   24.8693    5.0390 H         1 UNK         0.0940 
     87 H87        25.0903   25.3607    3.9666 H         1 UNK         0.0940 
     88 H88        28.0196   26.1974    3.5688 H         1 UNK         0.0703 
     89 H89        25.5479   27.4427    2.4472 H         1 UNK         0.3081 
     90 H90        25.4428   28.0540    0.3442 H         1 UNK         0.0719 
     91 H91        28.0499   29.6669    0.1427 H         1 UNK         0.0809 
     92 H92        26.4559   30.1947   -0.3950 H         1 UNK         0.0809 
     93 H93        26.7730   29.9554    1.3142 H         1 UNK         0.0809 
     94 H94        27.3805   28.2060   -1.7316 H         1 UNK         0.2990 
     95 H95        25.8504   25.7952   -3.6225 H         1 UNK         0.0690 
     96 H96        27.4983   27.0611   -4.9469 H         1 UNK         0.0788 
     97 H97        28.2592   27.7000   -3.4995 H         1 UNK         0.0788 
     98 H98        26.6081   28.1616   -3.9160 H         1 UNK         0.0788 
     99 H99        28.6739   25.3131   -2.7761 H         1 UNK         0.2993 
    100 H100       28.3072   21.8456   -2.8393 H         1 UNK         0.0949 
    101 H101       30.2916   21.8772   -4.3444 H         1 UNK         0.0767 
    102 H102       28.8299   22.2223   -5.2548 H         1 UNK         0.0767 
    103 H103       29.9255   23.5321   -4.8323 H         1 UNK         0.0767 
    104 H104       30.4468   23.8217   -2.4331 H         1 UNK         0.3013 
    105 H105       28.3659   28.6042    3.8991 H         1 UNK         0.3121 
    106 H106       27.4904   29.5049    6.4777 H         1 UNK         0.0774 
    107 H107       26.3561   31.5926    5.6174 H         1 UNK         0.0815 
    108 H108       26.5036   31.0068    3.9653 H         1 UNK         0.0815 
    109 H109       25.4623   30.1744    5.1159 H         1 UNK         0.0815 
    110 H110       28.3986   31.8355    6.7310 H         1 UNK         0.2987 
    111 H111       31.1538   31.8461    6.3680 H         1 UNK         0.0949 
    112 H112       29.2686   34.2134    6.8731 H         1 UNK         0.0806 
    113 H113       29.9832   33.1707    8.1042 H         1 UNK         0.0806 
    114 H114       31.0056   34.2249    7.1445 H         1 UNK         0.0806 
    115 H115       28.7435   32.9821    4.1075 H         1 UNK         0.3010 
    116 H116       30.3201   34.5780    2.3747 H         1 UNK         0.0829 
    117 H117       27.8365   34.4804    2.2708 H         1 UNK         0.0813 
    118 H118       28.5204   34.0462    0.7142 H         1 UNK         0.0813 
    119 H119       27.8977   32.7883    1.7726 H         1 UNK         0.0813 
    120 H120       30.2745   31.0729    2.8170 H         1 UNK         0.3038 
    121 H121       31.7054   30.4864    0.3187 H         1 UNK         0.0769 
    122 H122       31.6809   28.1738    1.2136 H         1 UNK         0.0811 
    123 H123       30.0696   28.8686    1.3438 H         1 UNK         0.0811 
    124 H124       31.0973   28.7338    2.7635 H         1 UNK         0.0811 
    125 H125       32.5691   31.7725    3.3590 H         1 UNK         0.3204 
    126 H126       34.3573   32.0326    4.5911 H         1 UNK         0.0748 
    127 H127       36.5666   32.2361    3.5343 H         1 UNK         0.0771 
    128 H128       36.0355   31.3292    2.1270 H         1 UNK         0.0771 
    129 H129       35.3543   32.9200    2.4658 H         1 UNK         0.0771 
    130 H130       33.1362   29.3067    4.4288 H         1 UNK         0.2980 
    131 H131       35.3252   27.4688    4.9374 H         1 UNK         0.0545 
    132 H132       34.2681   28.8363    8.5302 H         1 UNK         0.3459 
    133 H133       33.9476   29.7214    7.0596 H         1 UNK         0.3459 
    134 H134       33.4200   26.7058    3.6167 H         1 UNK         0.0616 
    135 H135       33.6653   25.7391    5.0369 H         1 UNK         0.0616 
    136 H136       32.0314   25.1113    6.5917 H         1 UNK         0.0634 
    137 H137       30.3919   25.6787    6.7310 H         1 UNK         0.0634 
@<TRIPOS>BOND
     1    1    2 1    
     2    1   72 1    
     3    1   73 1    
     4    1   74 1    
     5    2    3 2    
     6    2    4 am   BACKBONE|DICT|INTERRES
     7    4    5 1    
     8    4   75 1    
     9    5    6 1    
    10    5   35 1    
    11    5   76 1    
    12    6    7 1    
    13    6   77 1    
    14    6   78 1    
    15    7    8 1    
    16    8    9 1    
    17    8   79 1    
    18    8   80 1    
    19    9   10 ar   
    20    9   14 ar   
    21   10   11 ar   
    22   10   81 1    
    23   11   12 ar   
    24   11   71 1    
    25   12   13 ar   
    26   12   82 1    
    27   13   14 ar   
    28   13   15 1    
    29   14   83 1    
    30   15   16 1    
    31   15   84 1    
    32   15   85 1    
    33   16   17 1    
    34   17   18 1    
    35   17   86 1    
    36   17   87 1    
    37   18   19 1    
    38   18   37 1    
    39   18   88 1    
    40   19   20 am   BACKBONE|DICT|INTERRES
    41   19   89 1    
    42   20   21 2    
    43   20   22 1    
    44   22   23 1    
    45   22   24 1    
    46   22   90 1    
    47   23   91 1    
    48   23   92 1    
    49   23   93 1    
    50   24   25 am   BACKBONE|DICT|INTERRES
    51   24   94 1    
    52   25   26 2    
    53   25   27 1    
    54   27   28 1    
    55   27   29 1    
    56   27   95 1    
    57   28   96 1    
    58   28   97 1    
    59   28   98 1    
    60   29   30 am   BACKBONE|DICT|INTERRES
    61   29   99 1    
    62   30   31 2    
    63   30   32 1    
    64   32   33 1    
    65   32   34 1    
    66   32  100 1    
    67   33  101 1    
    68   33  102 1    
    69   33  103 1    
    70   34   35 am   BACKBONE|DICT|INTERRES
    71   34  104 1    
    72   35   36 2    
    73   37   38 2    
    74   37   39 am   BACKBONE|DICT|INTERRES
    75   39   40 1    
    76   39  105 1    
    77   40   41 1    
    78   40   42 1    
    79   40  106 1    
    80   41  107 1    
    81   41  108 1    
    82   41  109 1    
    83   42   43 2    
    84   42   44 am   BACKBONE|DICT|INTERRES
    85   44   45 1    
    86   44  110 1    
    87   45   46 1    
    88   45   47 1    
    89   45  111 1    
    90   46  112 1    
    91   46  113 1    
    92   46  114 1    
    93   47   48 2    
    94   47   49 am   BACKBONE|DICT|INTERRES
    95   49   50 1    
    96   49  115 1    
    97   50   51 1    
    98   50   52 1    
    99   50  116 1    
   100   51  117 1    
   101   51  118 1    
   102   51  119 1    
   103   52   53 2    
   104   52   54 am   BACKBONE|DICT|INTERRES
   105   54   55 1    
   106   54  120 1    
   107   55   56 1    
   108   55   57 1    
   109   55  121 1    
   110   56  122 1    
   111   56  123 1    
   112   56  124 1    
   113   57   58 2    
   114   57   59 am   BACKBONE|DICT|INTERRES
   115   59   60 1    
   116   59  125 1    
   117   60   61 1    
   118   60   62 1    
   119   60  126 1    
   120   61  127 1    
   121   61  128 1    
   122   61  129 1    
   123   62   63 2    
   124   62   64 am   BACKBONE|DICT|INTERRES
   125   64   65 1    
   126   64  130 1    
   127   65   66 1    
   128   65   69 1    
   129   65  131 1    
   130   66   67 am   BACKBONE|DICT|INTERRES
   131   66   68 2    
   132   67  132 1    
   133   67  133 1    
   134   69   70 1    
   135   69  134 1    
   136   69  135 1    
   137   70   71 1    
   138   71  136 1    
   139   71  137 1    
@<TRIPOS>SUBSTRUCTURE
     1 UNK         1 GROUP             0       ****    0 ROOT    
