@<TRIPOS>MOLECULE
3R136
137   139    1
SMALL
USER_CHARGES


@<TRIPOS>ATOM
      1 CA         24.7985   24.1373    1.9511 C.3       0 UNK        -0.1979 
      2 C          26.1368   23.6323    1.4365 C.2       0 UNK         0.4864 
      3 O          27.0037   24.4484    1.1080 O.2       0 UNK        -0.5359 
      4 N          26.3112   22.3035    1.3621 N.am      1 UNK        -0.4318 
      5 CA         27.5241   21.6034    0.9181 C.3       1 UNK         0.0824 
      6 C6         28.7377   21.9251    1.8296 C.3       12 UNK        -0.0944 
      7 S7         30.0591   20.6666    1.8070 S.3       12 UNK        -0.2672 
      8 C8         31.5120   21.5789    1.1644 C.3       12 UNK         0.0333 
      9 C9         31.7185   22.9740    1.7577 C.ar      12 UNK        -0.0807 
     10 C10        32.1610   24.0085    0.9273 C.ar      12 UNK        -0.0894 
     11 C11        32.2986   25.3149    1.4062 C.ar      12 UNK        -0.0804 
     12 C12        31.9708   25.5795    2.7427 C.ar      12 UNK        -0.0824 
     13 C13        31.5424   24.5561    3.5927 C.ar      12 UNK        -0.0762 
     14 C14        31.4503   23.2501    3.1041 C.ar      12 UNK        -0.0782 
     15 C15        31.1778   24.8756    5.0377 C.3       12 UNK         0.0230 
     16 S16        29.4555   24.4540    5.4894 S.3       12 UNK        -0.2608 
     17 C17        28.4501   24.9821    4.0573 C.3       12 UNK        -0.0989 
     18 CA         28.4696   26.4975    3.7433 C.3       5 UNK         0.0716 
     19 N          28.2059   26.7374    2.3140 N.am      5 UNK        -0.4135 
     20 C          28.4162   27.9060    1.6867 C.2       4 UNK         0.5031 
     21 O          28.7930   28.9171    2.2768 O.2       4 UNK        -0.5229 
     22 CA         28.1348   28.0087    0.1791 C.3       4 UNK         0.0329 
     23 CB         29.4484   28.0985   -0.6159 C.3       4 UNK        -0.2001 
     24 N          27.3160   26.9172   -0.3528 N.am      4 UNK        -0.4303 
     25 C          26.5138   27.0221   -1.4214 C.2       3 UNK         0.5044 
     26 O          26.3038   28.0763   -2.0248 O.2       3 UNK        -0.5152 
     27 CA         25.8604   25.7117   -1.9006 C.3       3 UNK         0.0319 
     28 CB         25.1387   25.8401   -3.2594 C.3       3 UNK        -0.2001 
     29 N          26.8228   24.6031   -1.9007 N.am      3 UNK        -0.4354 
     30 C          27.9292   24.4612   -2.6487 C.2       2 UNK         0.4964 
     31 O          28.2288   25.2130   -3.5768 O.2       2 UNK        -0.5047 
     32 CA         28.8864   23.3050   -2.2779 C.3       2 UNK         0.0288 
     33 CB         30.3602   23.7395   -2.3840 C.3       2 UNK        -0.2113 
     34 N          28.6532   22.7901   -0.9246 N.am      2 UNK        -0.4145 
     35 C          27.7547   21.8547   -0.5878 C.2       1 UNK         0.5006 
     36 O          27.0667   21.2464   -1.4090 O.2       1 UNK        -0.5103 
     37 C          27.5495   27.3081    4.6868 C.2       5 UNK         0.5055 
     38 O          27.8905   27.4995    5.8539 O.2       5 UNK        -0.5220 
     39 N          26.4315   27.8305    4.1595 N.am      6 UNK        -0.4450 
     40 CA         25.5693   28.8123    4.8248 C.3       6 UNK         0.0367 
     41 CB         24.2956   29.0084    3.9866 C.3       6 UNK        -0.1929 
     42 C          26.2601   30.1697    5.0815 C.2       6 UNK         0.5070 
     43 O          25.8138   30.9101    5.9580 O.2       6 UNK        -0.5237 
     44 N          27.3318   30.4684    4.3351 N.am      7 UNK        -0.4739 
     45 CA         28.1847   31.6439    4.4916 C.3       7 UNK         0.0276 
     46 CB         27.8648   32.6566    3.3759 C.3       7 UNK        -0.1927 
     47 C          29.6527   31.1885    4.4845 C.2       7 UNK         0.5013 
     48 O          30.4612   31.7290    3.7278 O.2       7 UNK        -0.5193 
     49 N          29.9631   30.1874    5.3261 N.am      8 UNK        -0.4253 
     50 CA         31.2340   29.4494    5.4026 C.3       8 UNK         0.0242 
     51 CB         31.1981   28.5022    6.6130 C.3       8 UNK        -0.2000 
     52 C          32.5175   30.2970    5.4526 C.2       8 UNK         0.4948 
     53 O          33.5550   29.8308    4.9842 O.2       8 UNK        -0.5275 
     54 N          32.4301   31.5297    5.9725 N.am      9 UNK        -0.4246 
     55 CA         33.5056   32.5262    5.9642 C.3       9 UNK         0.0261 
     56 CB         33.0343   33.7876    6.7050 C.3       9 UNK        -0.1959 
     57 C          34.0133   32.8886    4.5537 C.2       9 UNK         0.5033 
     58 O          35.1911   33.2204    4.4121 O.2       9 UNK        -0.5390 
     59 N          33.1468   32.7845    3.5336 N.am      10 UNK        -0.4215 
     60 CA         33.5037   32.9724    2.1241 C.3       10 UNK         0.0240 
     61 CB         32.2206   33.1262    1.2912 C.3       10 UNK        -0.1982 
     62 C          34.3746   31.8345    1.5581 C.2       10 UNK         0.4970 
     63 O          35.0767   32.0581    0.5712 O.2       10 UNK        -0.4916 
     64 N          34.3196   30.6503    2.1809 N.am      11 UNK        -0.4279 
     65 CA         35.1124   29.4656    1.8210 C.3       11 UNK         0.1003 
     66 C          36.5057   29.4196    2.5145 C.2       11 UNK         0.5709 
     67 N          36.8677   30.3758    3.3635 N.am      11 UNK        -0.7358 
     68 O          37.2876   28.5063    2.2606 O.2       11 UNK        -0.4999 
     69 C69        34.3081   28.1583    2.0551 C.3       12 UNK        -0.0954 
     70 S70        32.7794   28.1075    1.0569 S.3       12 UNK        -0.2268 
     71 C71        32.7946   26.3897    0.4333 C.3       12 UNK         0.0203 
     72 H72        24.1236   23.3197    2.2031 H         1 UNK         0.0888 
     73 H73        24.9469   24.7424    2.8449 H         1 UNK         0.0888 
     74 H74        24.3151   24.7568    1.1968 H         1 UNK         0.0888 
     75 H75        25.5433   21.6971    1.6162 H         1 UNK         0.3017 
     76 H76        27.3043   20.5394    1.0216 H         1 UNK         0.0873 
     77 H77        29.1335   22.9143    1.6142 H         1 UNK         0.0745 
     78 H78        28.4025   21.9757    2.8670 H         1 UNK         0.0745 
     79 H79        31.4065   21.6450    0.0805 H         1 UNK         0.0705 
     80 H80        32.4073   20.9843    1.3493 H         1 UNK         0.0705 
     81 H81        32.3945   23.7983   -0.1075 H         1 UNK         0.1334 
     82 H82        32.0461   26.5818    3.1366 H         1 UNK         0.1417 
     83 H83        31.1171   22.4600    3.7632 H         1 UNK         0.1562 
     84 H84        31.3385   25.9330    5.2465 H         1 UNK         0.0748 
     85 H85        31.8542   24.3342    5.7003 H         1 UNK         0.0748 
     86 H86        27.4280   24.6257    4.1975 H         1 UNK         0.0940 
     87 H87        28.8271   24.4312    3.1998 H         1 UNK         0.0940 
     88 H88        29.4805   26.8674    3.9229 H         1 UNK         0.0703 
     89 H89        27.8556   25.9365    1.7961 H         1 UNK         0.3081 
     90 H90        27.5921   28.9471    0.0463 H         1 UNK         0.0719 
     91 H91        30.0026   27.1620   -0.5668 H         1 UNK         0.0809 
     92 H92        29.2641   28.3226   -1.6666 H         1 UNK         0.0809 
     93 H93        30.0929   28.8875   -0.2259 H         1 UNK         0.0809 
     94 H94        27.3879   26.0088    0.0954 H         1 UNK         0.2990 
     95 H95        25.1054   25.4603   -1.1549 H         1 UNK         0.0690 
     96 H96        25.8134   26.1647   -4.0520 H         1 UNK         0.0788 
     97 H97        24.3327   26.5727   -3.2028 H         1 UNK         0.0788 
     98 H98        24.6943   24.8925   -3.5635 H         1 UNK         0.0788 
     99 H99        26.7060   23.9418   -1.1459 H         1 UNK         0.2993 
    100 H100       28.7150   22.5046   -3.0010 H         1 UNK         0.0949 
    101 H101       30.5799   24.5787   -1.7228 H         1 UNK         0.0767 
    102 H102       31.0344   22.9215   -2.1302 H         1 UNK         0.0767 
    103 H103       30.6071   24.0518   -3.3996 H         1 UNK         0.0767 
    104 H104       29.1311   23.2717   -0.1767 H         1 UNK         0.3013 
    105 H105       26.2210   27.6243    3.1945 H         1 UNK         0.3121 
    106 H106       25.2833   28.4038    5.7964 H         1 UNK         0.0774 
    107 H107       23.6148   29.7097    4.4712 H         1 UNK         0.0815 
    108 H108       24.5207   29.4059    2.9961 H         1 UNK         0.0815 
    109 H109       23.7541   28.0708    3.8596 H         1 UNK         0.0815 
    110 H110       27.6626   29.7964    3.6468 H         1 UNK         0.2987 
    111 H111       28.0065   32.1222    5.4571 H         1 UNK         0.0949 
    112 H112       28.0569   32.2367    2.3876 H         1 UNK         0.0806 
    113 H113       26.8210   32.9684    3.4114 H         1 UNK         0.0806 
    114 H114       28.4756   33.5549    3.4749 H         1 UNK         0.0806 
    115 H115       29.2103   29.8123    5.8872 H         1 UNK         0.3010 
    116 H116       31.2940   28.8446    4.4953 H         1 UNK         0.0829 
    117 H117       32.1245   27.9312    6.6927 H         1 UNK         0.0813 
    118 H118       31.0725   29.0493    7.5480 H         1 UNK         0.0813 
    119 H119       30.3855   27.7813    6.5368 H         1 UNK         0.0813 
    120 H120       31.5347   31.8294    6.3293 H         1 UNK         0.3038 
    121 H121       34.3486   32.1002    6.5122 H         1 UNK         0.0769 
    122 H122       33.8244   34.5393    6.7366 H         1 UNK         0.0811 
    123 H123       32.7613   33.5647    7.7366 H         1 UNK         0.0811 
    124 H124       32.1709   34.2429    6.2180 H         1 UNK         0.0811 
    125 H125       32.1941   32.4731    3.7196 H         1 UNK         0.3204 
    126 H126       34.0772   33.8980    2.0407 H         1 UNK         0.0748 
    127 H127       32.4555   33.3388    0.2474 H         1 UNK         0.0771 
    128 H128       31.6170   32.2175    1.3102 H         1 UNK         0.0771 
    129 H129       31.6028   33.9458    1.6588 H         1 UNK         0.0771 
    130 H130       33.7637   30.5540    3.0218 H         1 UNK         0.2980 
    131 H131       35.3305   29.5140    0.7526 H         1 UNK         0.0545 
    132 H132       36.2415   31.1370    3.5797 H         1 UNK         0.3459 
    133 H133       37.7765   30.3318    3.7960 H         1 UNK         0.3459 
    134 H134       34.9183   27.2881    1.8079 H         1 UNK         0.0616 
    135 H135       34.0422   28.0498    3.1069 H         1 UNK         0.0616 
    136 H136       33.8033   26.1372    0.1043 H         1 UNK         0.0634 
    137 H137       32.1740   26.3580   -0.4622 H         1 UNK         0.0634 
@<TRIPOS>BOND
     1    1    2 1    
     2    1   72 1    
     3    1   73 1    
     4    1   74 1    
     5    2    3 2    
     6    2    4 am   BACKBONE|DICT|INTERRES
     7    4    5 1    
     8    4   75 1    
     9    5    6 1    
    10    5   35 1    
    11    5   76 1    
    12    6    7 1    
    13    6   77 1    
    14    6   78 1    
    15    7    8 1    
    16    8    9 1    
    17    8   79 1    
    18    8   80 1    
    19    9   10 ar   
    20    9   14 ar   
    21   10   11 ar   
    22   10   81 1    
    23   11   12 ar   
    24   11   71 1    
    25   12   13 ar   
    26   12   82 1    
    27   13   14 ar   
    28   13   15 1    
    29   14   83 1    
    30   15   16 1    
    31   15   84 1    
    32   15   85 1    
    33   16   17 1    
    34   17   18 1    
    35   17   86 1    
    36   17   87 1    
    37   18   19 1    
    38   18   37 1    
    39   18   88 1    
    40   19   20 am   BACKBONE|DICT|INTERRES
    41   19   89 1    
    42   20   21 2    
    43   20   22 1    
    44   22   23 1    
    45   22   24 1    
    46   22   90 1    
    47   23   91 1    
    48   23   92 1    
    49   23   93 1    
    50   24   25 am   BACKBONE|DICT|INTERRES
    51   24   94 1    
    52   25   26 2    
    53   25   27 1    
    54   27   28 1    
    55   27   29 1    
    56   27   95 1    
    57   28   96 1    
    58   28   97 1    
    59   28   98 1    
    60   29   30 am   BACKBONE|DICT|INTERRES
    61   29   99 1    
    62   30   31 2    
    63   30   32 1    
    64   32   33 1    
    65   32   34 1    
    66   32  100 1    
    67   33  101 1    
    68   33  102 1    
    69   33  103 1    
    70   34   35 am   BACKBONE|DICT|INTERRES
    71   34  104 1    
    72   35   36 2    
    73   37   38 2    
    74   37   39 am   BACKBONE|DICT|INTERRES
    75   39   40 1    
    76   39  105 1    
    77   40   41 1    
    78   40   42 1    
    79   40  106 1    
    80   41  107 1    
    81   41  108 1    
    82   41  109 1    
    83   42   43 2    
    84   42   44 am   BACKBONE|DICT|INTERRES
    85   44   45 1    
    86   44  110 1    
    87   45   46 1    
    88   45   47 1    
    89   45  111 1    
    90   46  112 1    
    91   46  113 1    
    92   46  114 1    
    93   47   48 2    
    94   47   49 am   BACKBONE|DICT|INTERRES
    95   49   50 1    
    96   49  115 1    
    97   50   51 1    
    98   50   52 1    
    99   50  116 1    
   100   51  117 1    
   101   51  118 1    
   102   51  119 1    
   103   52   53 2    
   104   52   54 am   BACKBONE|DICT|INTERRES
   105   54   55 1    
   106   54  120 1    
   107   55   56 1    
   108   55   57 1    
   109   55  121 1    
   110   56  122 1    
   111   56  123 1    
   112   56  124 1    
   113   57   58 2    
   114   57   59 am   BACKBONE|DICT|INTERRES
   115   59   60 1    
   116   59  125 1    
   117   60   61 1    
   118   60   62 1    
   119   60  126 1    
   120   61  127 1    
   121   61  128 1    
   122   61  129 1    
   123   62   63 2    
   124   62   64 am   BACKBONE|DICT|INTERRES
   125   64   65 1    
   126   64  130 1    
   127   65   66 1    
   128   65   69 1    
   129   65  131 1    
   130   66   67 am   BACKBONE|DICT|INTERRES
   131   66   68 2    
   132   67  132 1    
   133   67  133 1    
   134   69   70 1    
   135   69  134 1    
   136   69  135 1    
   137   70   71 1    
   138   71  136 1    
   139   71  137 1    
@<TRIPOS>SUBSTRUCTURE
     1 UNK         1 GROUP             0       ****    0 ROOT    
