@<TRIPOS>MOLECULE
3R136
137   139    1
SMALL
USER_CHARGES


@<TRIPOS>ATOM
      1 CA         26.7586   22.3051   -2.9686 C.3       0 UNK        -0.1979 
      2 C          28.1537   22.6833   -2.4933 C.2       0 UNK         0.4864 
      3 O          28.8582   23.4125   -3.1920 O.2       0 UNK        -0.5359 
      4 N          28.5521   22.1993   -1.3085 N.am      1 UNK        -0.4318 
      5 CA         29.8446   22.4692   -0.6687 C.3       1 UNK         0.0824 
      6 C6         30.0128   21.6045    0.6028 C.3       12 UNK        -0.0944 
      7 S7         31.7181   21.6155    1.2534 S.3       12 UNK        -0.2672 
      8 C8         31.4511   21.1503    2.9936 C.3       12 UNK         0.0333 
      9 C9         30.7114   22.2252    3.7794 C.ar      12 UNK        -0.0807 
     10 C10        31.3779   23.3840    4.1888 C.ar      12 UNK        -0.0894 
     11 C11        30.7114   24.3572    4.9398 C.ar      12 UNK        -0.0804 
     12 C12        29.3667   24.1709    5.2749 C.ar      12 UNK        -0.0824 
     13 C13        28.6873   23.0209    4.8619 C.ar      12 UNK        -0.0762 
     14 C14        29.3668   22.0494    4.1211 C.ar      12 UNK        -0.0782 
     15 C15        27.2252   22.8107    5.2265 C.3       12 UNK         0.0230 
     16 S16        26.1188   23.2429    3.8466 S.3       12 UNK        -0.2608 
     17 C17        26.0691   25.0650    3.9530 C.3       12 UNK        -0.0989 
     18 CA         27.0203   25.7571    2.9393 C.3       5 UNK         0.0716 
     19 N          26.7830   25.4001    1.5360 N.am      5 UNK        -0.4135 
     20 C          25.6656   25.5843    0.8163 C.2       4 UNK         0.5031 
     21 O          24.5987   26.0025    1.2697 O.2       4 UNK        -0.5229 
     22 CA         25.7898   25.2566   -0.6852 C.3       4 UNK         0.0329 
     23 CB         24.4783   25.4650   -1.4725 C.3       4 UNK        -0.2001 
     24 N          26.9038   25.9841   -1.3088 N.am      4 UNK        -0.4303 
     25 C          27.0653   27.3147   -1.3941 C.2       3 UNK         0.5044 
     26 O          26.2202   28.1409   -1.0484 O.2       3 UNK        -0.5152 
     27 CA         28.4379   27.7863   -1.9001 C.3       3 UNK         0.0319 
     28 CB         28.6264   29.3161   -1.8259 C.3       3 UNK        -0.2001 
     29 N          29.4722   27.0939   -1.1334 N.am      3 UNK        -0.4354 
     30 C          30.7263   26.8550   -1.5267 C.2       2 UNK         0.4964 
     31 O          31.2171   27.2858   -2.5701 O.2       2 UNK        -0.5047 
     32 CA         31.5672   25.9453   -0.6127 C.3       2 UNK         0.0288 
     33 CB         31.5833   26.4160    0.8562 C.3       2 UNK        -0.2113 
     34 N          31.1744   24.5341   -0.7173 N.am      2 UNK        -0.4145 
     35 C          30.0089   23.9725   -0.3606 C.2       1 UNK         0.5006 
     36 O          29.0811   24.5794    0.1839 O.2       1 UNK        -0.5103 
     37 C          27.0271   27.2918    3.0813 C.2       5 UNK         0.5055 
     38 O          26.0213   27.8869    3.4751 O.2       5 UNK        -0.5220 
     39 N          28.1540   27.9032    2.6936 N.am      6 UNK        -0.4450 
     40 CA         28.3521   29.3521    2.6439 C.3       6 UNK         0.0367 
     41 CB         29.6967   29.6433    1.9571 C.3       6 UNK        -0.1929 
     42 C          28.3081   30.0128    4.0341 C.2       6 UNK         0.5070 
     43 O          28.7504   29.4211    5.0218 O.2       6 UNK        -0.5237 
     44 N          27.8130   31.2553    4.0795 N.am      7 UNK        -0.4739 
     45 CA         27.8109   32.1093    5.2688 C.3       7 UNK         0.0276 
     46 CB         26.6775   33.1443    5.1407 C.3       7 UNK        -0.1927 
     47 C          29.1936   32.7637    5.4320 C.2       7 UNK         0.5013 
     48 O          29.3648   33.9310    5.0742 O.2       7 UNK        -0.5193 
     49 N          30.1601   31.9677    5.9121 N.am      8 UNK        -0.4253 
     50 CA         31.6022   32.2429    5.9258 C.3       8 UNK         0.0242 
     51 CB         31.9498   33.4643    6.8078 C.3       8 UNK        -0.2000 
     52 C          32.1366   32.3126    4.4825 C.2       8 UNK         0.4948 
     53 O          31.7405   31.4717    3.6731 O.2       8 UNK        -0.5275 
     54 N          33.0240   33.2721    4.1769 N.am      9 UNK        -0.4246 
     55 CA         33.6426   33.5080    2.8641 C.3       9 UNK         0.0261 
     56 CB         32.6031   34.0712    1.8676 C.3       9 UNK        -0.1959 
     57 C          34.3758   32.2537    2.3521 C.2       9 UNK         0.5033 
     58 O          35.4788   31.9733    2.8224 O.2       9 UNK        -0.5390 
     59 N          33.7334   31.4905    1.4570 N.am      10 UNK        -0.4215 
     60 CA         34.1877   30.1829    0.9745 C.3       10 UNK         0.0240 
     61 CB         33.2621   29.7157   -0.1610 C.3       10 UNK        -0.1982 
     62 C          34.2972   29.1118    2.0806 C.2       10 UNK         0.4970 
     63 O          35.1374   28.2199    1.9595 O.2       10 UNK        -0.4916 
     64 N          33.4867   29.2330    3.1415 N.am      11 UNK        -0.4279 
     65 CA         33.6137   28.4542    4.3849 C.3       11 UNK         0.1003 
     66 C          34.6752   29.0208    5.3761 C.2       11 UNK         0.5709 
     67 N          35.3517   30.1295    5.0980 N.am      11 UNK        -0.7358 
     68 O          34.9063   28.4275    6.4269 O.2       11 UNK        -0.4999 
     69 C69        32.2370   28.2554    5.0779 C.3       12 UNK        -0.0954 
     70 S70        31.2307   26.9809    4.2541 S.3       12 UNK        -0.2268 
     71 C71        31.4499   25.5985    5.4109 C.3       12 UNK         0.0203 
     72 H72        26.8238   21.6783   -3.8575 H         1 UNK         0.0888 
     73 H73        26.2015   21.7592   -2.2074 H         1 UNK         0.0888 
     74 H74        26.1929   23.2003   -3.2252 H         1 UNK         0.0888 
     75 H75        27.9179   21.6211   -0.7765 H         1 UNK         0.3017 
     76 H76        30.6138   22.1756   -1.3865 H         1 UNK         0.0873 
     77 H77        29.3120   21.9314    1.3719 H         1 UNK         0.0745 
     78 H78        29.7595   20.5656    0.3853 H         1 UNK         0.0745 
     79 H79        32.4205   20.9688    3.4599 H         1 UNK         0.0705 
     80 H80        30.9139   20.2013    3.0326 H         1 UNK         0.0705 
     81 H81        32.4179   23.5242    3.9269 H         1 UNK         0.1334 
     82 H82        28.8506   24.9236    5.8553 H         1 UNK         0.1417 
     83 H83        28.8437   21.1558    3.8081 H         1 UNK         0.1562 
     84 H84        26.9573   23.3821    6.1165 H         1 UNK         0.0748 
     85 H85        27.0654   21.7628    5.4850 H         1 UNK         0.0748 
     86 H86        26.3143   25.3732    4.9707 H         1 UNK         0.0940 
     87 H87        25.0371   25.3814    3.7930 H         1 UNK         0.0940 
     88 H88        28.0324   25.4154    3.1597 H         1 UNK         0.0703 
     89 H89        27.6017   25.0394    1.0471 H         1 UNK         0.3081 
     90 H90        26.0396   24.1967   -0.7415 H         1 UNK         0.0719 
     91 H91        24.1352   26.4990   -1.4271 H         1 UNK         0.0809 
     92 H92        24.5981   25.1977   -2.5221 H         1 UNK         0.0809 
     93 H93        23.6799   24.8418   -1.0679 H         1 UNK         0.0809 
     94 H94        27.6834   25.4078   -1.5978 H         1 UNK         0.2990 
     95 H95        28.5144   27.4791   -2.9453 H         1 UNK         0.0690 
     96 H96        29.6245   29.6158   -2.1452 H         1 UNK         0.0788 
     97 H97        28.4663   29.6964   -0.8176 H         1 UNK         0.0788 
     98 H98        27.9136   29.8234   -2.4770 H         1 UNK         0.0788 
     99 H99        29.1552   26.6094   -0.3021 H         1 UNK         0.2993 
    100 H100       32.5937   26.0038   -0.9790 H         1 UNK         0.0949 
    101 H101       30.6104   26.3286    1.3371 H         1 UNK         0.0767 
    102 H102       32.2900   25.8310    1.4453 H         1 UNK         0.0767 
    103 H103       31.8879   27.4576    0.9370 H         1 UNK         0.0767 
    104 H104       31.8576   23.9396   -1.1659 H         1 UNK         0.3013 
    105 H105       28.9596   27.3379    2.4735 H         1 UNK         0.3121 
    106 H106       27.5502   29.7685    2.0303 H         1 UNK         0.0774 
    107 H107       29.8256   30.7132    1.7894 H         1 UNK         0.0815 
    108 H108       30.5369   29.3110    2.5662 H         1 UNK         0.0815 
    109 H109       29.7759   29.1491    0.9906 H         1 UNK         0.0815 
    110 H110       27.5077   31.6884    3.2195 H         1 UNK         0.2987 
    111 H111       27.6125   31.5038    6.1565 H         1 UNK         0.0949 
    112 H112       26.7941   33.7703    4.2550 H         1 UNK         0.0806 
    113 H113       25.7033   32.6588    5.0813 H         1 UNK         0.0806 
    114 H114       26.6565   33.8065    6.0073 H         1 UNK         0.0806 
    115 H115       29.9046   30.9975    6.0591 H         1 UNK         0.3010 
    116 H116       32.0729   31.3684    6.3774 H         1 UNK         0.0829 
    117 H117       31.4982   33.3731    7.7958 H         1 UNK         0.0813 
    118 H118       33.0265   33.5473    6.9603 H         1 UNK         0.0813 
    119 H119       31.6030   34.4027    6.3737 H         1 UNK         0.0813 
    120 H120       33.3153   33.8970    4.9153 H         1 UNK         0.3038 
    121 H121       34.4075   34.2726    3.0087 H         1 UNK         0.0769 
    122 H122       33.0486   34.2394    0.8860 H         1 UNK         0.0811 
    123 H123       32.2195   35.0318    2.2116 H         1 UNK         0.0811 
    124 H124       31.7457   33.4104    1.7359 H         1 UNK         0.0811 
    125 H125       32.8075   31.7808    1.1778 H         1 UNK         0.3204 
    126 H126       35.1896   30.3169    0.5612 H         1 UNK         0.0748 
    127 H127       33.5520   28.7288   -0.5248 H         1 UNK         0.0771 
    128 H128       32.2224   29.6571    0.1615 H         1 UNK         0.0771 
    129 H129       33.3073   30.3959   -1.0118 H         1 UNK         0.0771 
    130 H130       32.8309   30.0096    3.1774 H         1 UNK         0.2980 
    131 H131       33.9904   27.4630    4.1256 H         1 UNK         0.0545 
    132 H132       36.0359   30.4543    5.7619 H         1 UNK         0.3459 
    133 H133       35.2359   30.6277    4.2225 H         1 UNK         0.3459 
    134 H134       31.6699   29.1863    5.0886 H         1 UNK         0.0616 
    135 H135       32.3482   27.9711    6.1256 H         1 UNK         0.0616 
    136 H136       32.5147   25.3865    5.5203 H         1 UNK         0.0634 
    137 H137       31.0885   25.8918    6.3977 H         1 UNK         0.0634 
@<TRIPOS>BOND
     1    1    2 1    
     2    1   72 1    
     3    1   73 1    
     4    1   74 1    
     5    2    3 2    
     6    2    4 am   BACKBONE|DICT|INTERRES
     7    4    5 1    
     8    4   75 1    
     9    5    6 1    
    10    5   35 1    
    11    5   76 1    
    12    6    7 1    
    13    6   77 1    
    14    6   78 1    
    15    7    8 1    
    16    8    9 1    
    17    8   79 1    
    18    8   80 1    
    19    9   10 ar   
    20    9   14 ar   
    21   10   11 ar   
    22   10   81 1    
    23   11   12 ar   
    24   11   71 1    
    25   12   13 ar   
    26   12   82 1    
    27   13   14 ar   
    28   13   15 1    
    29   14   83 1    
    30   15   16 1    
    31   15   84 1    
    32   15   85 1    
    33   16   17 1    
    34   17   18 1    
    35   17   86 1    
    36   17   87 1    
    37   18   19 1    
    38   18   37 1    
    39   18   88 1    
    40   19   20 am   BACKBONE|DICT|INTERRES
    41   19   89 1    
    42   20   21 2    
    43   20   22 1    
    44   22   23 1    
    45   22   24 1    
    46   22   90 1    
    47   23   91 1    
    48   23   92 1    
    49   23   93 1    
    50   24   25 am   BACKBONE|DICT|INTERRES
    51   24   94 1    
    52   25   26 2    
    53   25   27 1    
    54   27   28 1    
    55   27   29 1    
    56   27   95 1    
    57   28   96 1    
    58   28   97 1    
    59   28   98 1    
    60   29   30 am   BACKBONE|DICT|INTERRES
    61   29   99 1    
    62   30   31 2    
    63   30   32 1    
    64   32   33 1    
    65   32   34 1    
    66   32  100 1    
    67   33  101 1    
    68   33  102 1    
    69   33  103 1    
    70   34   35 am   BACKBONE|DICT|INTERRES
    71   34  104 1    
    72   35   36 2    
    73   37   38 2    
    74   37   39 am   BACKBONE|DICT|INTERRES
    75   39   40 1    
    76   39  105 1    
    77   40   41 1    
    78   40   42 1    
    79   40  106 1    
    80   41  107 1    
    81   41  108 1    
    82   41  109 1    
    83   42   43 2    
    84   42   44 am   BACKBONE|DICT|INTERRES
    85   44   45 1    
    86   44  110 1    
    87   45   46 1    
    88   45   47 1    
    89   45  111 1    
    90   46  112 1    
    91   46  113 1    
    92   46  114 1    
    93   47   48 2    
    94   47   49 am   BACKBONE|DICT|INTERRES
    95   49   50 1    
    96   49  115 1    
    97   50   51 1    
    98   50   52 1    
    99   50  116 1    
   100   51  117 1    
   101   51  118 1    
   102   51  119 1    
   103   52   53 2    
   104   52   54 am   BACKBONE|DICT|INTERRES
   105   54   55 1    
   106   54  120 1    
   107   55   56 1    
   108   55   57 1    
   109   55  121 1    
   110   56  122 1    
   111   56  123 1    
   112   56  124 1    
   113   57   58 2    
   114   57   59 am   BACKBONE|DICT|INTERRES
   115   59   60 1    
   116   59  125 1    
   117   60   61 1    
   118   60   62 1    
   119   60  126 1    
   120   61  127 1    
   121   61  128 1    
   122   61  129 1    
   123   62   63 2    
   124   62   64 am   BACKBONE|DICT|INTERRES
   125   64   65 1    
   126   64  130 1    
   127   65   66 1    
   128   65   69 1    
   129   65  131 1    
   130   66   67 am   BACKBONE|DICT|INTERRES
   131   66   68 2    
   132   67  132 1    
   133   67  133 1    
   134   69   70 1    
   135   69  134 1    
   136   69  135 1    
   137   70   71 1    
   138   71  136 1    
   139   71  137 1    
@<TRIPOS>SUBSTRUCTURE
     1 UNK         1 GROUP             0       ****    0 ROOT    
