@<TRIPOS>MOLECULE
3R136
137   139    1
SMALL
USER_CHARGES


@<TRIPOS>ATOM
      1 CA         26.9915   23.1639   -0.5455 C.3       0 UNK        -0.1979 
      2 C          28.3031   23.9266   -0.4421 C.2       0 UNK         0.4864 
      3 O          28.3352   24.9966    0.1640 O.2       0 UNK        -0.5359 
      4 N          29.3774   23.3957   -1.0440 N.am      1 UNK        -0.4318 
      5 CA         30.7546   23.9219   -1.0711 C.3       1 UNK         0.0824 
      6 C6         31.3995   24.0977    0.3306 C.3       12 UNK        -0.0944 
      7 S7         31.4533   22.5204    1.2435 S.3       12 UNK        -0.2672 
      8 C8         32.5270   22.9514    2.6461 C.3       12 UNK         0.0333 
      9 C9         31.8274   23.8567    3.6504 C.ar      12 UNK        -0.0807 
     10 C10        32.2240   25.1888    3.7964 C.ar      12 UNK        -0.0894 
     11 C11        31.6282   26.0018    4.7650 C.ar      12 UNK        -0.0804 
     12 C12        30.6183   25.4803    5.5758 C.ar      12 UNK        -0.0824 
     13 C13        30.1911   24.1565    5.4238 C.ar      12 UNK        -0.0762 
     14 C14        30.8075   23.3490    4.4622 C.ar      12 UNK        -0.0782 
     15 C15        29.1061   23.5701    6.3230 C.3       12 UNK         0.0230 
     16 S16        27.7141   24.7067    6.6403 S.3       12 UNK        -0.2608 
     17 C17        26.8849   24.7726    5.0124 C.3       12 UNK        -0.0989 
     18 CA         27.2025   26.0002    4.1108 C.3       5 UNK         0.0716 
     19 N          26.3523   25.9637    2.9096 N.am      5 UNK        -0.4135 
     20 C          26.3527   26.8529    1.9079 C.2       4 UNK         0.5031 
     21 O          27.0430   27.8710    1.8909 O.2       4 UNK        -0.5229 
     22 CA         25.3547   26.6135    0.7738 C.3       4 UNK         0.0329 
     23 CB         23.9765   27.1949    1.1461 C.3       4 UNK        -0.2001 
     24 N          25.8604   27.2495   -0.4405 N.am      4 UNK        -0.4303 
     25 C          25.4419   26.9951   -1.6836 C.2       3 UNK         0.5044 
     26 O          24.5621   26.1763   -1.9537 O.2       3 UNK        -0.5152 
     27 CA         26.1172   27.7658   -2.8311 C.3       3 UNK         0.0319 
     28 CB         25.7508   29.2647   -2.8122 C.3       3 UNK        -0.2001 
     29 N          27.5664   27.5395   -2.9129 N.am      3 UNK        -0.4354 
     30 C          28.5275   27.9815   -2.0906 C.2       2 UNK         0.4964 
     31 O          28.3290   28.7042   -1.1142 O.2       2 UNK        -0.5047 
     32 CA         29.9376   27.4563   -2.3767 C.3       2 UNK         0.0288 
     33 CB         31.0535   28.4492   -1.9993 C.3       2 UNK        -0.2113 
     34 N          30.0799   26.2142   -1.6299 N.am      2 UNK        -0.4145 
     35 C          30.8935   25.1985   -1.9272 C.2       1 UNK         0.5006 
     36 O          31.7066   25.2227   -2.8528 O.2       1 UNK        -0.5103 
     37 C          27.1346   27.3539    4.8642 C.2       5 UNK         0.5055 
     38 O          28.1623   27.8474    5.3297 O.2       5 UNK        -0.5220 
     39 N          25.9347   27.9485    4.9349 N.am      6 UNK        -0.4450 
     40 CA         25.6937   29.2558    5.5511 C.3       6 UNK         0.0367 
     41 CB         24.1918   29.3929    5.8512 C.3       6 UNK        -0.1929 
     42 C          26.1787   30.4510    4.7056 C.2       6 UNK         0.5070 
     43 O          26.3585   31.5346    5.2627 O.2       6 UNK        -0.5237 
     44 N          26.3497   30.2588    3.3909 N.am      7 UNK        -0.4739 
     45 CA         26.7521   31.2989    2.4399 C.3       7 UNK         0.0276 
     46 CB         25.9138   31.1496    1.1582 C.3       7 UNK        -0.1927 
     47 C          28.2493   31.2308    2.0987 C.2       7 UNK         0.5013 
     48 O          28.8475   32.2715    1.8208 O.2       7 UNK        -0.5193 
     49 N          28.8108   30.0153    2.0923 N.am      8 UNK        -0.4253 
     50 CA         30.1765   29.6938    1.6878 C.3       8 UNK         0.0242 
     51 CB         30.3639   28.1660    1.7536 C.3       8 UNK        -0.2000 
     52 C          31.2542   30.4008    2.5243 C.2       8 UNK         0.4948 
     53 O          31.1780   30.4020    3.7536 O.2       8 UNK        -0.5275 
     54 N          32.2706   30.9336    1.8350 N.am      9 UNK        -0.4246 
     55 CA         33.4794   31.5038    2.4395 C.3       9 UNK         0.0261 
     56 CB         33.8993   32.7447    1.6334 C.3       9 UNK        -0.1959 
     57 C          34.6384   30.4907    2.5010 C.2       9 UNK         0.5033 
     58 O          35.6444   30.7723    3.1531 O.2       9 UNK        -0.5390 
     59 N          34.4916   29.3411    1.8226 N.am      10 UNK        -0.4215 
     60 CA         35.5132   28.3041    1.6257 C.3       10 UNK         0.0240 
     61 CB         34.9234   27.1888    0.7443 C.3       10 UNK        -0.1982 
     62 C          36.1067   27.7062    2.9147 C.2       10 UNK         0.4970 
     63 O          37.2547   27.2610    2.8955 O.2       10 UNK        -0.4916 
     64 N          35.3228   27.7085    3.9976 N.am      11 UNK        -0.4279 
     65 CA         35.7335   27.2788    5.3398 C.3       11 UNK         0.1003 
     66 C          36.4735   28.3707    6.1690 C.2       11 UNK         0.5709 
     67 N          36.6318   29.5969    5.6817 N.am      11 UNK        -0.7358 
     68 O          36.9357   28.0923    7.2731 O.2       11 UNK        -0.4999 
     69 C69        34.5536   26.6235    6.1057 C.3       12 UNK        -0.0954 
     70 S70        33.1187   27.7204    6.3949 S.3       12 UNK        -0.2268 
     71 C71        32.0629   27.4492    4.9320 C.3       12 UNK         0.0203 
     72 H72        26.2503   23.7646   -1.0724 H         1 UNK         0.0888 
     73 H73        27.1082   22.2212   -1.0796 H         1 UNK         0.0888 
     74 H74        26.6083   22.9443    0.4505 H         1 UNK         0.0888 
     75 H75        29.2612   22.5236   -1.5412 H         1 UNK         0.3017 
     76 H76        31.3356   23.1585   -1.5917 H         1 UNK         0.0873 
     77 H77        32.4212   24.4703    0.2340 H         1 UNK         0.0745 
     78 H78        30.8595   24.8338    0.9290 H         1 UNK         0.0745 
     79 H79        32.8304   22.0321    3.1490 H         1 UNK         0.0705 
     80 H80        33.4447   23.4105    2.2750 H         1 UNK         0.0705 
     81 H81        33.0120   25.5864    3.1724 H         1 UNK         0.1334 
     82 H82        30.1630   26.1141    6.3248 H         1 UNK         0.1417 
     83 H83        30.5036   22.3171    4.3482 H         1 UNK         0.1562 
     84 H84        29.5611   23.3077    7.2789 H         1 UNK         0.0748 
     85 H85        28.7142   22.6414    5.9051 H         1 UNK         0.0748 
     86 H86        25.8125   24.7359    5.2134 H         1 UNK         0.0940 
     87 H87        27.1101   23.8539    4.4683 H         1 UNK         0.0940 
     88 H88        28.2319   25.8967    3.7601 H         1 UNK         0.0703 
     89 H89        25.7341   25.1694    2.8353 H         1 UNK         0.3081 
     90 H90        25.2724   25.5385    0.6020 H         1 UNK         0.0719 
     91 H91        24.0261   28.2734    1.3032 H         1 UNK         0.0809 
     92 H92        23.2385   27.0062    0.3665 H         1 UNK         0.0809 
     93 H93        23.5926   26.7471    2.0633 H         1 UNK         0.0809 
     94 H94        26.6474   27.8807   -0.3027 H         1 UNK         0.2990 
     95 H95        25.7121   27.3557   -3.7579 H         1 UNK         0.0690 
     96 H96        26.1849   29.7887   -3.6635 H         1 UNK         0.0788 
     97 H97        26.0888   29.7646   -1.9044 H         1 UNK         0.0788 
     98 H98        24.6696   29.3980   -2.8664 H         1 UNK         0.0788 
     99 H99        27.8468   26.9126   -3.6547 H         1 UNK         0.2993 
    100 H100       30.0143   27.2491   -3.4465 H         1 UNK         0.0949 
    101 H101       30.8703   29.4309   -2.4379 H         1 UNK         0.0767 
    102 H102       31.1327   28.5765   -0.9226 H         1 UNK         0.0767 
    103 H103       32.0228   28.1063   -2.3614 H         1 UNK         0.0767 
    104 H104       29.4078   26.0623   -0.8768 H         1 UNK         0.3013 
    105 H105       25.1390   27.4827    4.5246 H         1 UNK         0.3121 
    106 H106       26.2334   29.2909    6.5002 H         1 UNK         0.0774 
    107 H107       23.9778   30.3420    6.3450 H         1 UNK         0.0815 
    108 H108       23.5927   29.3584    4.9404 H         1 UNK         0.0815 
    109 H109       23.8444   28.6007    6.5146 H         1 UNK         0.0815 
    110 H110       26.2687   29.3199    3.0168 H         1 UNK         0.2987 
    111 H111       26.5537   32.2879    2.8590 H         1 UNK         0.0949 
    112 H112       26.0800   30.1852    0.6762 H         1 UNK         0.0806 
    113 H113       24.8480   31.2407    1.3677 H         1 UNK         0.0806 
    114 H114       26.1696   31.9228    0.4326 H         1 UNK         0.0806 
    115 H115       28.2019   29.2156    2.2480 H         1 UNK         0.3010 
    116 H116       30.2727   30.0150    0.6496 H         1 UNK         0.0829 
    117 H117       29.6981   27.6560    1.0569 H         1 UNK         0.0813 
    118 H118       31.3827   27.8715    1.5010 H         1 UNK         0.0813 
    119 H119       30.1459   27.7800    2.7499 H         1 UNK         0.0813 
    120 H120       32.2288   30.9354    0.8252 H         1 UNK         0.3038 
    121 H121       33.2707   31.8209    3.4636 H         1 UNK         0.0769 
    122 H122       34.1472   32.4944    0.6011 H         1 UNK         0.0811 
    123 H123       34.7782   33.2179    2.0737 H         1 UNK         0.0811 
    124 H124       33.1062   33.4926    1.6168 H         1 UNK         0.0811 
    125 H125       33.6265   29.2075    1.3233 H         1 UNK         0.3204 
    126 H126       36.3392   28.7680    1.0827 H         1 UNK         0.0748 
    127 H127       34.6158   27.5709   -0.2295 H         1 UNK         0.0771 
    128 H128       35.6588   26.4038    0.5613 H         1 UNK         0.0771 
    129 H129       34.0560   26.7194    1.2097 H         1 UNK         0.0771 
    130 H130       34.4135   28.1377    3.9364 H         1 UNK         0.2980 
    131 H131       36.4762   26.4890    5.2128 H         1 UNK         0.0545 
    132 H132       37.1215   30.2812    6.2352 H         1 UNK         0.3459 
    133 H133       36.2721   29.8574    4.7688 H         1 UNK         0.3459 
    134 H134       34.8942   26.2651    7.0786 H         1 UNK         0.0616 
    135 H135       34.2297   25.7268    5.5795 H         1 UNK         0.0616 
    136 H136       31.1721   28.0697    5.0394 H         1 UNK         0.0634 
    137 H137       32.5693   27.8062    4.0358 H         1 UNK         0.0634 
@<TRIPOS>BOND
     1    1    2 1    
     2    1   72 1    
     3    1   73 1    
     4    1   74 1    
     5    2    3 2    
     6    2    4 am   BACKBONE|DICT|INTERRES
     7    4    5 1    
     8    4   75 1    
     9    5    6 1    
    10    5   35 1    
    11    5   76 1    
    12    6    7 1    
    13    6   77 1    
    14    6   78 1    
    15    7    8 1    
    16    8    9 1    
    17    8   79 1    
    18    8   80 1    
    19    9   10 ar   
    20    9   14 ar   
    21   10   11 ar   
    22   10   81 1    
    23   11   12 ar   
    24   11   71 1    
    25   12   13 ar   
    26   12   82 1    
    27   13   14 ar   
    28   13   15 1    
    29   14   83 1    
    30   15   16 1    
    31   15   84 1    
    32   15   85 1    
    33   16   17 1    
    34   17   18 1    
    35   17   86 1    
    36   17   87 1    
    37   18   19 1    
    38   18   37 1    
    39   18   88 1    
    40   19   20 am   BACKBONE|DICT|INTERRES
    41   19   89 1    
    42   20   21 2    
    43   20   22 1    
    44   22   23 1    
    45   22   24 1    
    46   22   90 1    
    47   23   91 1    
    48   23   92 1    
    49   23   93 1    
    50   24   25 am   BACKBONE|DICT|INTERRES
    51   24   94 1    
    52   25   26 2    
    53   25   27 1    
    54   27   28 1    
    55   27   29 1    
    56   27   95 1    
    57   28   96 1    
    58   28   97 1    
    59   28   98 1    
    60   29   30 am   BACKBONE|DICT|INTERRES
    61   29   99 1    
    62   30   31 2    
    63   30   32 1    
    64   32   33 1    
    65   32   34 1    
    66   32  100 1    
    67   33  101 1    
    68   33  102 1    
    69   33  103 1    
    70   34   35 am   BACKBONE|DICT|INTERRES
    71   34  104 1    
    72   35   36 2    
    73   37   38 2    
    74   37   39 am   BACKBONE|DICT|INTERRES
    75   39   40 1    
    76   39  105 1    
    77   40   41 1    
    78   40   42 1    
    79   40  106 1    
    80   41  107 1    
    81   41  108 1    
    82   41  109 1    
    83   42   43 2    
    84   42   44 am   BACKBONE|DICT|INTERRES
    85   44   45 1    
    86   44  110 1    
    87   45   46 1    
    88   45   47 1    
    89   45  111 1    
    90   46  112 1    
    91   46  113 1    
    92   46  114 1    
    93   47   48 2    
    94   47   49 am   BACKBONE|DICT|INTERRES
    95   49   50 1    
    96   49  115 1    
    97   50   51 1    
    98   50   52 1    
    99   50  116 1    
   100   51  117 1    
   101   51  118 1    
   102   51  119 1    
   103   52   53 2    
   104   52   54 am   BACKBONE|DICT|INTERRES
   105   54   55 1    
   106   54  120 1    
   107   55   56 1    
   108   55   57 1    
   109   55  121 1    
   110   56  122 1    
   111   56  123 1    
   112   56  124 1    
   113   57   58 2    
   114   57   59 am   BACKBONE|DICT|INTERRES
   115   59   60 1    
   116   59  125 1    
   117   60   61 1    
   118   60   62 1    
   119   60  126 1    
   120   61  127 1    
   121   61  128 1    
   122   61  129 1    
   123   62   63 2    
   124   62   64 am   BACKBONE|DICT|INTERRES
   125   64   65 1    
   126   64  130 1    
   127   65   66 1    
   128   65   69 1    
   129   65  131 1    
   130   66   67 am   BACKBONE|DICT|INTERRES
   131   66   68 2    
   132   67  132 1    
   133   67  133 1    
   134   69   70 1    
   135   69  134 1    
   136   69  135 1    
   137   70   71 1    
   138   71  136 1    
   139   71  137 1    
@<TRIPOS>SUBSTRUCTURE
     1 UNK         1 GROUP             0       ****    0 ROOT    
