@<TRIPOS>MOLECULE
3R136
137   139    1
SMALL
USER_CHARGES


@<TRIPOS>ATOM
      1 CA         30.9009   26.7716    3.3126 C.3       0 UNK        -0.1979 
      2 C          30.1327   25.6090    3.9183 C.2       0 UNK         0.4864 
      3 O          29.4131   25.8001    4.8986 O.2       0 UNK        -0.5359 
      4 N          30.2651   24.4085    3.3374 N.am      1 UNK        -0.4318 
      5 CA         29.5469   23.1972    3.7599 C.3       1 UNK         0.0824 
      6 C6         30.1402   21.9105    3.1359 C.3       12 UNK        -0.0944 
      7 S7         31.8622   21.5980    3.6488 S.3       12 UNK        -0.2672 
      8 C8         32.6958   21.3631    2.0481 C.3       12 UNK         0.0333 
      9 C9         33.1870   22.6823    1.4730 C.ar      12 UNK        -0.0807 
     10 C10        34.4934   23.1063    1.7273 C.ar      12 UNK        -0.0894 
     11 C11        34.9749   24.2969    1.1784 C.ar      12 UNK        -0.0804 
     12 C12        34.1237   25.0853    0.3948 C.ar      12 UNK        -0.0824 
     13 C13        32.8065   24.6812    0.1421 C.ar      12 UNK        -0.0762 
     14 C14        32.3544   23.4645    0.6678 C.ar      12 UNK        -0.0782 
     15 C15        31.9015   25.5348   -0.7450 C.3       12 UNK         0.0230 
     16 S16        30.1973   25.6865   -0.0999 S.3       12 UNK        -0.2608 
     17 C17        29.9402   27.4950   -0.0572 C.3       12 UNK        -0.0989 
     18 CA         29.1841   28.0218   -1.3015 C.3       5 UNK         0.0716 
     19 N          27.8766   27.3771   -1.4686 N.am      5 UNK        -0.4135 
     20 C          27.1566   27.3992   -2.6013 C.2       4 UNK         0.5031 
     21 O          27.5645   27.8850   -3.6570 O.2       4 UNK        -0.5229 
     22 CA         25.7318   26.8099   -2.5596 C.3       4 UNK         0.0329 
     23 CB         25.7243   25.3918   -3.1532 C.3       4 UNK        -0.2001 
     24 N          25.1295   26.7688   -1.2238 N.am      4 UNK        -0.4303 
     25 C          24.9125   27.8221   -0.4215 C.2       3 UNK         0.5044 
     26 O          25.1420   28.9877   -0.7436 O.2       3 UNK        -0.5152 
     27 CA         24.4234   27.5198    1.0077 C.3       3 UNK         0.0319 
     28 CB         22.8969   27.6743    1.0957 C.3       3 UNK        -0.2001 
     29 N          24.8085   26.1928    1.5085 N.am      3 UNK        -0.4354 
     30 C          26.0670   25.7435    1.6184 C.2       2 UNK         0.4964 
     31 O          27.0618   26.3968    1.2920 O.2       2 UNK        -0.5047 
     32 CA         26.2296   24.3027    2.1094 C.3       2 UNK         0.0288 
     33 CB         25.8622   23.2991    1.0002 C.3       2 UNK        -0.2113 
     34 N          27.6164   24.0948    2.5100 N.am      2 UNK        -0.4145 
     35 C          28.0301   23.2615    3.4722 C.2       1 UNK         0.5006 
     36 O          27.2672   22.5428    4.1214 O.2       1 UNK        -0.5103 
     37 C          29.0766   29.5644   -1.2547 C.2       5 UNK         0.5055 
     38 O          30.0809   30.2307   -1.5089 O.2       5 UNK        -0.5220 
     39 N          27.8810   30.0994   -0.9434 N.am      6 UNK        -0.4450 
     40 CA         27.5261   31.5230   -0.8707 C.3       6 UNK         0.0367 
     41 CB         27.5141   32.1456   -2.2830 C.3       6 UNK        -0.1929 
     42 C          28.3932   32.3131    0.1293 C.2       6 UNK         0.5070 
     43 O          28.8896   33.3931   -0.1982 O.2       6 UNK        -0.5237 
     44 N          28.5737   31.7517    1.3300 N.am      7 UNK        -0.4739 
     45 CA         29.4250   32.2929    2.3856 C.3       7 UNK         0.0276 
     46 CB         30.8607   31.7894    2.1733 C.3       7 UNK        -0.1927 
     47 C          28.8974   31.8604    3.7574 C.2       7 UNK         0.5013 
     48 O          28.2007   30.8461    3.8585 O.2       7 UNK        -0.5193 
     49 N          29.2616   32.6257    4.7931 N.am      8 UNK        -0.4253 
     50 CA         28.8963   32.3902    6.1906 C.3       8 UNK         0.0242 
     51 CB         28.9506   33.7293    6.9510 C.3       8 UNK        -0.2000 
     52 C          29.7889   31.3101    6.8314 C.2       8 UNK         0.4948 
     53 O          30.6270   31.6277    7.6783 O.2       8 UNK        -0.5275 
     54 N          29.5799   30.0564    6.4078 N.am      9 UNK        -0.4246 
     55 CA         30.2749   28.8381    6.8428 C.3       9 UNK         0.0261 
     56 CB         30.0409   28.5742    8.3487 C.3       9 UNK        -0.1959 
     57 C          31.7631   28.8141    6.4333 C.2       9 UNK         0.5033 
     58 O          32.1506   29.5113    5.4910 O.2       9 UNK        -0.5390 
     59 N          32.5568   27.9619    7.1025 N.am      10 UNK        -0.4215 
     60 CA         33.9578   27.6323    6.8064 C.3       10 UNK         0.0240 
     61 CB         34.8831   28.8443    7.0672 C.3       10 UNK        -0.1982 
     62 C          34.0816   27.0252    5.3959 C.2       10 UNK         0.4970 
     63 O          33.6380   25.8935    5.2003 O.2       10 UNK        -0.4916 
     64 N          34.6259   27.7965    4.4502 N.am      11 UNK        -0.4279 
     65 CA         34.6261   27.5181    3.0061 C.3       11 UNK         0.1003 
     66 C          33.8983   28.6271    2.1928 C.2       11 UNK         0.5709 
     67 N          33.1915   29.5603    2.8169 N.am      11 UNK        -0.7358 
     68 O          33.9548   28.6359    0.9659 O.2       11 UNK        -0.4999 
     69 C69        36.0625   27.2599    2.4781 C.3       12 UNK        -0.0954 
     70 S70        36.6757   25.6128    2.9522 S.3       12 UNK        -0.2268 
     71 C71        36.4299   24.6924    1.3998 C.3       12 UNK         0.0203 
     72 H72        31.5697   27.2006    4.0517 H         1 UNK         0.0888 
     73 H73        31.4994   26.4662    2.4552 H         1 UNK         0.0888 
     74 H74        30.2123   27.5541    2.9981 H         1 UNK         0.0888 
     75 H75        30.9001   24.2971    2.5594 H         1 UNK         0.3017 
     76 H76        29.6503   23.1203    4.8446 H         1 UNK         0.0873 
     77 H77        30.0675   21.9472    2.0481 H         1 UNK         0.0745 
     78 H78        29.5613   21.0365    3.4422 H         1 UNK         0.0745 
     79 H79        33.5408   20.6889    2.1964 H         1 UNK         0.0705 
     80 H80        32.0339   20.8573    1.3434 H         1 UNK         0.0705 
     81 H81        35.1457   22.4979    2.3392 H         1 UNK         0.1334 
     82 H82        34.4935   26.0082   -0.0313 H         1 UNK         0.1417 
     83 H83        31.3528   23.1243    0.4446 H         1 UNK         0.1562 
     84 H84        31.8565   25.0803   -1.7354 H         1 UNK         0.0748 
     85 H85        32.3380   26.5244   -0.8864 H         1 UNK         0.0748 
     86 H86        30.9018   27.9987    0.0626 H         1 UNK         0.0940 
     87 H87        29.3704   27.7294    0.8429 H         1 UNK         0.0940 
     88 H88        29.7861   27.7782   -2.1798 H         1 UNK         0.0703 
     89 H89        27.4915   26.9400   -0.6375 H         1 UNK         0.3081 
     90 H90        25.1010   27.4479   -3.1819 H         1 UNK         0.0719 
     91 H91        26.1389   25.3886   -4.1624 H         1 UNK         0.0809 
     92 H92        26.3194   24.7007   -2.5547 H         1 UNK         0.0809 
     93 H93        24.7117   24.9936   -3.2212 H         1 UNK         0.0809 
     94 H94        24.9066   25.8539   -0.8610 H         1 UNK         0.2990 
     95 H95        24.8810   28.2609    1.6665 H         1 UNK         0.0690 
     96 H96        22.5445   27.5645    2.1215 H         1 UNK         0.0788 
     97 H97        22.3796   26.9368    0.4806 H         1 UNK         0.0788 
     98 H98        22.5841   28.6618    0.7527 H         1 UNK         0.0788 
     99 H99        24.0519   25.5833    1.7859 H         1 UNK         0.2993 
    100 H100       25.5731   24.1619    2.9711 H         1 UNK         0.0949 
    101 H101       26.4911   23.4275    0.1179 H         1 UNK         0.0767 
    102 H102       25.9777   22.2709    1.3438 H         1 UNK         0.0767 
    103 H103       24.8248   23.4163    0.6848 H         1 UNK         0.0767 
    104 H104       28.2818   24.7115    2.0596 H         1 UNK         0.3013 
    105 H105       27.1028   29.4688   -0.7786 H         1 UNK         0.3121 
    106 H106       26.5057   31.5642   -0.4865 H         1 UNK         0.0774 
    107 H107       26.8654   31.5855   -2.9565 H         1 UNK         0.0815 
    108 H108       27.1437   33.1711   -2.2554 H         1 UNK         0.0815 
    109 H109       28.5118   32.1714   -2.7223 H         1 UNK         0.0815 
    110 H110       28.0927   30.8932    1.5675 H         1 UNK         0.2987 
    111 H111       29.4093   33.3847    2.3463 H         1 UNK         0.0949 
    112 H112       31.2797   32.1659    1.2397 H         1 UNK         0.0806 
    113 H113       31.5208   32.1083    2.9814 H         1 UNK         0.0806 
    114 H114       30.8786   30.7003    2.1331 H         1 UNK         0.0806 
    115 H115       29.8735   33.4109    4.6220 H         1 UNK         0.3010 
    116 H116       27.8653   32.0308    6.2321 H         1 UNK         0.0829 
    117 H117       28.2589   34.4560    6.5246 H         1 UNK         0.0813 
    118 H118       28.6720   33.5947    7.9971 H         1 UNK         0.0813 
    119 H119       29.9498   34.1665    6.9336 H         1 UNK         0.0813 
    120 H120       28.9306   29.9401    5.6369 H         1 UNK         0.3038 
    121 H121       29.8017   28.0255    6.2916 H         1 UNK         0.0769 
    122 H122       30.3233   27.5586    8.6267 H         1 UNK         0.0811 
    123 H123       28.9883   28.6872    8.6089 H         1 UNK         0.0811 
    124 H124       30.6121   29.2600    8.9758 H         1 UNK         0.0811 
    125 H125       32.1322   27.4087    7.8335 H         1 UNK         0.3204 
    126 H126       34.2480   26.8441    7.5029 H         1 UNK         0.0748 
    127 H127       34.8259   29.1565    8.1100 H         1 UNK         0.0771 
    128 H128       35.9257   28.5925    6.8676 H         1 UNK         0.0771 
    129 H129       34.6272   29.7102    6.4561 H         1 UNK         0.0771 
    130 H130       34.9324   28.7226    4.7100 H         1 UNK         0.2980 
    131 H131       34.0303   26.6248    2.8145 H         1 UNK         0.0545 
    132 H132       33.0126   29.5259    3.8178 H         1 UNK         0.3459 
    133 H133       32.7492   30.2708    2.2598 H         1 UNK         0.3459 
    134 H134       36.1172   27.3418    1.3917 H         1 UNK         0.0616 
    135 H135       36.7518   28.0131    2.8627 H         1 UNK         0.0616 
    136 H136       37.0476   23.7936    1.4340 H         1 UNK         0.0634 
    137 H137       36.8029   25.2748    0.5561 H         1 UNK         0.0634 
@<TRIPOS>BOND
     1    1    2 1    
     2    1   72 1    
     3    1   73 1    
     4    1   74 1    
     5    2    3 2    
     6    2    4 am   BACKBONE|DICT|INTERRES
     7    4    5 1    
     8    4   75 1    
     9    5    6 1    
    10    5   35 1    
    11    5   76 1    
    12    6    7 1    
    13    6   77 1    
    14    6   78 1    
    15    7    8 1    
    16    8    9 1    
    17    8   79 1    
    18    8   80 1    
    19    9   10 ar   
    20    9   14 ar   
    21   10   11 ar   
    22   10   81 1    
    23   11   12 ar   
    24   11   71 1    
    25   12   13 ar   
    26   12   82 1    
    27   13   14 ar   
    28   13   15 1    
    29   14   83 1    
    30   15   16 1    
    31   15   84 1    
    32   15   85 1    
    33   16   17 1    
    34   17   18 1    
    35   17   86 1    
    36   17   87 1    
    37   18   19 1    
    38   18   37 1    
    39   18   88 1    
    40   19   20 am   BACKBONE|DICT|INTERRES
    41   19   89 1    
    42   20   21 2    
    43   20   22 1    
    44   22   23 1    
    45   22   24 1    
    46   22   90 1    
    47   23   91 1    
    48   23   92 1    
    49   23   93 1    
    50   24   25 am   BACKBONE|DICT|INTERRES
    51   24   94 1    
    52   25   26 2    
    53   25   27 1    
    54   27   28 1    
    55   27   29 1    
    56   27   95 1    
    57   28   96 1    
    58   28   97 1    
    59   28   98 1    
    60   29   30 am   BACKBONE|DICT|INTERRES
    61   29   99 1    
    62   30   31 2    
    63   30   32 1    
    64   32   33 1    
    65   32   34 1    
    66   32  100 1    
    67   33  101 1    
    68   33  102 1    
    69   33  103 1    
    70   34   35 am   BACKBONE|DICT|INTERRES
    71   34  104 1    
    72   35   36 2    
    73   37   38 2    
    74   37   39 am   BACKBONE|DICT|INTERRES
    75   39   40 1    
    76   39  105 1    
    77   40   41 1    
    78   40   42 1    
    79   40  106 1    
    80   41  107 1    
    81   41  108 1    
    82   41  109 1    
    83   42   43 2    
    84   42   44 am   BACKBONE|DICT|INTERRES
    85   44   45 1    
    86   44  110 1    
    87   45   46 1    
    88   45   47 1    
    89   45  111 1    
    90   46  112 1    
    91   46  113 1    
    92   46  114 1    
    93   47   48 2    
    94   47   49 am   BACKBONE|DICT|INTERRES
    95   49   50 1    
    96   49  115 1    
    97   50   51 1    
    98   50   52 1    
    99   50  116 1    
   100   51  117 1    
   101   51  118 1    
   102   51  119 1    
   103   52   53 2    
   104   52   54 am   BACKBONE|DICT|INTERRES
   105   54   55 1    
   106   54  120 1    
   107   55   56 1    
   108   55   57 1    
   109   55  121 1    
   110   56  122 1    
   111   56  123 1    
   112   56  124 1    
   113   57   58 2    
   114   57   59 am   BACKBONE|DICT|INTERRES
   115   59   60 1    
   116   59  125 1    
   117   60   61 1    
   118   60   62 1    
   119   60  126 1    
   120   61  127 1    
   121   61  128 1    
   122   61  129 1    
   123   62   63 2    
   124   62   64 am   BACKBONE|DICT|INTERRES
   125   64   65 1    
   126   64  130 1    
   127   65   66 1    
   128   65   69 1    
   129   65  131 1    
   130   66   67 am   BACKBONE|DICT|INTERRES
   131   66   68 2    
   132   67  132 1    
   133   67  133 1    
   134   69   70 1    
   135   69  134 1    
   136   69  135 1    
   137   70   71 1    
   138   71  136 1    
   139   71  137 1    
@<TRIPOS>SUBSTRUCTURE
     1 UNK         1 GROUP             0       ****    0 ROOT    
