@<TRIPOS>MOLECULE
3R136
137   139    1
SMALL
USER_CHARGES


@<TRIPOS>ATOM
      1 CA         29.3013   20.5926    2.1047 C.3       0 UNK        -0.1979 
      2 C          28.8616   21.8637    1.3951 C.2       0 UNK         0.4864 
      3 O          27.7576   22.3493    1.6457 O.2       0 UNK        -0.5359 
      4 N          29.7126   22.3965    0.5028 N.am      1 UNK        -0.4318 
      5 CA         29.5293   23.6517   -0.2492 C.3       1 UNK         0.0824 
      6 C6         29.6940   24.9114    0.6430 C.3       12 UNK        -0.0944 
      7 S7         31.3719   25.0287    1.3501 S.3       12 UNK        -0.2672 
      8 C8         31.1088   24.4913    3.0705 C.3       12 UNK         0.0333 
      9 C9         30.4493   25.5776    3.9042 C.ar      12 UNK        -0.0807 
     10 C10        31.2102   26.6562    4.3619 C.ar      12 UNK        -0.0894 
     11 C11        30.6208   27.6691    5.1218 C.ar      12 UNK        -0.0804 
     12 C12        29.2584   27.5972    5.4239 C.ar      12 UNK        -0.0824 
     13 C13        28.4875   26.5173    4.9811 C.ar      12 UNK        -0.0762 
     14 C14        29.0901   25.5054    4.2261 C.ar      12 UNK        -0.0782 
     15 C15        27.0068   26.4447    5.3326 C.3       12 UNK         0.0230 
     16 S16        25.9240   26.4881    3.8667 S.3       12 UNK        -0.2608 
     17 C17        26.4475   28.0276    3.0322 C.3       12 UNK        -0.0989 
     18 CA         27.1373   27.7235    1.6735 C.3       5 UNK         0.0716 
     19 N          26.2722   26.9916    0.7364 N.am      5 UNK        -0.4135 
     20 C          25.1364   27.4461    0.1812 C.2       4 UNK         0.5031 
     21 O          24.6685   28.5684    0.3763 O.2       4 UNK        -0.5229 
     22 CA         24.3928   26.4903   -0.7615 C.3       4 UNK         0.0329 
     23 CB         24.8141   26.7460   -2.2183 C.3       4 UNK        -0.2001 
     24 N          24.6574   25.0921   -0.4305 N.am      4 UNK        -0.4303 
     25 C          23.9174   24.3295    0.3873 C.2       3 UNK         0.5044 
     26 O          22.9017   24.7331    0.9558 O.2       3 UNK        -0.5152 
     27 CA         24.3907   22.8758    0.6235 C.3       3 UNK         0.0319 
     28 CB         23.2194   21.8714    0.6560 C.3       3 UNK        -0.2001 
     29 N          25.4456   22.4398   -0.3031 N.am      3 UNK        -0.4354 
     30 C          25.3631   22.3250   -1.6407 C.2       2 UNK         0.4964 
     31 O          24.3030   22.3894   -2.2642 O.2       2 UNK        -0.5047 
     32 CA         26.6840   22.1712   -2.4280 C.3       2 UNK         0.0288 
     33 CB         26.6587   22.9734   -3.7473 C.3       2 UNK        -0.2113 
     34 N          27.8974   22.5005   -1.6646 N.am      2 UNK        -0.4145 
     35 C          28.2141   23.6608   -1.0627 C.2       1 UNK         0.5006 
     36 O          27.4937   24.6643   -1.0747 O.2       1 UNK        -0.5103 
     37 C          27.7585   28.9690    1.0024 C.2       5 UNK         0.5055 
     38 O          27.8111   30.0448    1.6005 O.2       5 UNK        -0.5220 
     39 N          28.2081   28.7921   -0.2497 N.am      6 UNK        -0.4450 
     40 CA         28.7718   29.8390   -1.1078 C.3       6 UNK         0.0367 
     41 CB         28.7788   29.3335   -2.5601 C.3       6 UNK        -0.1929 
     42 C          30.1789   30.3115   -0.6949 C.2       6 UNK         0.5070 
     43 O          30.6352   31.3423   -1.1921 O.2       6 UNK        -0.5237 
     44 N          30.8513   29.5610    0.1878 N.am      7 UNK        -0.4739 
     45 CA         32.1650   29.8773    0.7478 C.3       7 UNK         0.0276 
     46 CB         32.7625   28.5976    1.3602 C.3       7 UNK        -0.1927 
     47 C          32.0767   31.0248    1.7712 C.2       7 UNK         0.5013 
     48 O          32.1197   30.7815    2.9781 O.2       7 UNK        -0.5193 
     49 N          31.9459   32.2604    1.2723 N.am      8 UNK        -0.4253 
     50 CA         31.8948   33.5033    2.0490 C.3       8 UNK         0.0242 
     51 CB         31.2684   34.6069    1.1760 C.3       8 UNK        -0.2000 
     52 C          33.2808   33.8973    2.6021 C.2       8 UNK         0.4948 
     53 O          33.8261   34.9404    2.2355 O.2       8 UNK        -0.5275 
     54 N          33.8301   33.0367    3.4615 N.am      9 UNK        -0.4246 
     55 CA         35.1222   33.1489    4.1302 C.3       9 UNK         0.0261 
     56 CB         36.2635   32.8145    3.1432 C.3       9 UNK        -0.1959 
     57 C          35.0888   32.2268    5.3611 C.2       9 UNK         0.5033 
     58 O          34.0039   31.9484    5.8796 O.2       9 UNK        -0.5390 
     59 N          36.2592   31.7539    5.8098 N.am      10 UNK        -0.4215 
     60 CA         36.3829   30.7167    6.8364 C.3       10 UNK         0.0240 
     61 CB         37.8482   30.6152    7.2913 C.3       10 UNK        -0.1982 
     62 C          35.8821   29.3675    6.2931 C.2       10 UNK         0.4970 
     63 O          36.2890   28.9697    5.1988 O.2       10 UNK        -0.4916 
     64 N          35.0106   28.7018    7.0574 N.am      11 UNK        -0.4279 
     65 CA         34.3416   27.4531    6.6560 C.3       11 UNK         0.1003 
     66 C          35.2265   26.1760    6.7469 C.2       11 UNK         0.5709 
     67 N          36.4158   26.2286    7.3352 N.am      11 UNK        -0.7358 
     68 O          34.8286   25.1183    6.2649 O.2       11 UNK        -0.4999 
     69 C69        32.9916   27.2525    7.3981 C.3       12 UNK        -0.0954 
     70 S70        31.8872   28.7088    7.3685 S.3       12 UNK        -0.2268 
     71 C71        31.4511   28.8482    5.6055 C.3       12 UNK         0.0203 
     72 H72        29.3227   20.7552    3.1819 H         1 UNK         0.0888 
     73 H73        28.6004   19.7850    1.8956 H         1 UNK         0.0888 
     74 H74        30.2942   20.2716    1.7903 H         1 UNK         0.0888 
     75 H75        30.5984   21.9359    0.3446 H         1 UNK         0.3017 
     76 H76        30.3227   23.6771   -0.9980 H         1 UNK         0.0873 
     77 H77        29.5363   25.8202    0.0600 H         1 UNK         0.0745 
     78 H78        28.9461   24.9207    1.4359 H         1 UNK         0.0745 
     79 H79        30.5204   23.5741    3.0907 H         1 UNK         0.0705 
     80 H80        32.0755   24.2394    3.5091 H         1 UNK         0.0705 
     81 H81        32.2625   26.7075    4.1188 H         1 UNK         0.1334 
     82 H82        28.8030   28.3829    6.0114 H         1 UNK         0.1417 
     83 H83        28.4953   24.6700    3.8807 H         1 UNK         0.1562 
     84 H84        26.7245   27.2609    5.9994 H         1 UNK         0.0748 
     85 H85        26.8169   25.5222    5.8829 H         1 UNK         0.0748 
     86 H86        27.1156   28.5869    3.6890 H         1 UNK         0.0940 
     87 H87        25.5725   28.6640    2.8914 H         1 UNK         0.0940 
     88 H88        27.9821   27.0675    1.8851 H         1 UNK         0.0703 
     89 H89        26.5782   26.0613    0.4834 H         1 UNK         0.3081 
     90 H90        23.3232   26.6928   -0.6730 H         1 UNK         0.0719 
     91 H91        24.6102   27.7777   -2.5083 H         1 UNK         0.0809 
     92 H92        25.8797   26.5684   -2.3707 H         1 UNK         0.0809 
     93 H93        24.2670   26.1014   -2.9065 H         1 UNK         0.0809 
     94 H94        25.5012   24.6919   -0.8276 H         1 UNK         0.2990 
     95 H95        24.8517   22.8735    1.6124 H         1 UNK         0.0690 
     96 H96        23.5735   20.8544    0.8242 H         1 UNK         0.0788 
     97 H97        22.6486   21.8802   -0.2728 H         1 UNK         0.0788 
     98 H98        22.5248   22.1084    1.4627 H         1 UNK         0.0788 
     99 H99        26.3632   22.3652    0.1265 H         1 UNK         0.2993 
    100 H100       26.7579   21.1126   -2.6820 H         1 UNK         0.0949 
    101 H101       26.5149   24.0399   -3.5693 H         1 UNK         0.0767 
    102 H102       27.5869   22.8490   -4.3051 H         1 UNK         0.0767 
    103 H103       25.8480   22.6405   -4.3967 H         1 UNK         0.0767 
    104 H104       28.5500   21.7368   -1.5512 H         1 UNK         0.3013 
    105 H105       28.1115   27.8773   -0.6663 H         1 UNK         0.3121 
    106 H106       28.1144   30.7095   -1.0528 H         1 UNK         0.0774 
    107 H107       29.4139   28.4548   -2.6792 H         1 UNK         0.0815 
    108 H108       27.7748   29.0722   -2.8955 H         1 UNK         0.0815 
    109 H109       29.1543   30.1004   -3.2392 H         1 UNK         0.0815 
    110 H110       30.3910   28.7436    0.5588 H         1 UNK         0.2987 
    111 H111       32.8254   30.2005   -0.0600 H         1 UNK         0.0949 
    112 H112       32.9042   27.8239    0.6055 H         1 UNK         0.0806 
    113 H113       33.7366   28.7951    1.8098 H         1 UNK         0.0806 
    114 H114       32.1200   28.1890    2.1398 H         1 UNK         0.0806 
    115 H115       31.8496   32.3471    0.2670 H         1 UNK         0.3010 
    116 H116       31.2377   33.3466    2.9074 H         1 UNK         0.0829 
    117 H117       31.8671   34.8072    0.2865 H         1 UNK         0.0813 
    118 H118       30.2651   34.3322    0.8496 H         1 UNK         0.0813 
    119 H119       31.1827   35.5425    1.7303 H         1 UNK         0.0813 
    120 H120       33.2916   32.2110    3.7179 H         1 UNK         0.3038 
    121 H121       35.2431   34.1726    4.4899 H         1 UNK         0.0769 
    122 H122       36.2070   33.4298    2.2452 H         1 UNK         0.0811 
    123 H123       36.2296   31.7700    2.8296 H         1 UNK         0.0811 
    124 H124       37.2432   33.0000    3.5841 H         1 UNK         0.0811 
    125 H125       37.1022   32.0017    5.3129 H         1 UNK         0.3204 
    126 H126       35.7743   31.0093    7.6951 H         1 UNK         0.0748 
    127 H127       38.5086   30.3302    6.4709 H         1 UNK         0.0771 
    128 H128       38.2049   31.5627    7.6959 H         1 UNK         0.0771 
    129 H129       37.9617   29.8661    8.0761 H         1 UNK         0.0771 
    130 H130       34.7202   29.0940    7.9408 H         1 UNK         0.2980 
    131 H131       34.1073   27.5477    5.5948 H         1 UNK         0.0545 
    132 H132       36.9804   25.3951    7.3826 H         1 UNK         0.3459 
    133 H133       36.7531   27.0914    7.7298 H         1 UNK         0.3459 
    134 H134       33.1761   27.0092    8.4460 H         1 UNK         0.0616 
    135 H135       32.4480   26.4008    6.9857 H         1 UNK         0.0616 
    136 H136       32.3581   28.9584    5.0102 H         1 UNK         0.0634 
    137 H137       30.8871   29.7704    5.4577 H         1 UNK         0.0634 
@<TRIPOS>BOND
     1    1    2 1    
     2    1   72 1    
     3    1   73 1    
     4    1   74 1    
     5    2    3 2    
     6    2    4 am   BACKBONE|DICT|INTERRES
     7    4    5 1    
     8    4   75 1    
     9    5    6 1    
    10    5   35 1    
    11    5   76 1    
    12    6    7 1    
    13    6   77 1    
    14    6   78 1    
    15    7    8 1    
    16    8    9 1    
    17    8   79 1    
    18    8   80 1    
    19    9   10 ar   
    20    9   14 ar   
    21   10   11 ar   
    22   10   81 1    
    23   11   12 ar   
    24   11   71 1    
    25   12   13 ar   
    26   12   82 1    
    27   13   14 ar   
    28   13   15 1    
    29   14   83 1    
    30   15   16 1    
    31   15   84 1    
    32   15   85 1    
    33   16   17 1    
    34   17   18 1    
    35   17   86 1    
    36   17   87 1    
    37   18   19 1    
    38   18   37 1    
    39   18   88 1    
    40   19   20 am   BACKBONE|DICT|INTERRES
    41   19   89 1    
    42   20   21 2    
    43   20   22 1    
    44   22   23 1    
    45   22   24 1    
    46   22   90 1    
    47   23   91 1    
    48   23   92 1    
    49   23   93 1    
    50   24   25 am   BACKBONE|DICT|INTERRES
    51   24   94 1    
    52   25   26 2    
    53   25   27 1    
    54   27   28 1    
    55   27   29 1    
    56   27   95 1    
    57   28   96 1    
    58   28   97 1    
    59   28   98 1    
    60   29   30 am   BACKBONE|DICT|INTERRES
    61   29   99 1    
    62   30   31 2    
    63   30   32 1    
    64   32   33 1    
    65   32   34 1    
    66   32  100 1    
    67   33  101 1    
    68   33  102 1    
    69   33  103 1    
    70   34   35 am   BACKBONE|DICT|INTERRES
    71   34  104 1    
    72   35   36 2    
    73   37   38 2    
    74   37   39 am   BACKBONE|DICT|INTERRES
    75   39   40 1    
    76   39  105 1    
    77   40   41 1    
    78   40   42 1    
    79   40  106 1    
    80   41  107 1    
    81   41  108 1    
    82   41  109 1    
    83   42   43 2    
    84   42   44 am   BACKBONE|DICT|INTERRES
    85   44   45 1    
    86   44  110 1    
    87   45   46 1    
    88   45   47 1    
    89   45  111 1    
    90   46  112 1    
    91   46  113 1    
    92   46  114 1    
    93   47   48 2    
    94   47   49 am   BACKBONE|DICT|INTERRES
    95   49   50 1    
    96   49  115 1    
    97   50   51 1    
    98   50   52 1    
    99   50  116 1    
   100   51  117 1    
   101   51  118 1    
   102   51  119 1    
   103   52   53 2    
   104   52   54 am   BACKBONE|DICT|INTERRES
   105   54   55 1    
   106   54  120 1    
   107   55   56 1    
   108   55   57 1    
   109   55  121 1    
   110   56  122 1    
   111   56  123 1    
   112   56  124 1    
   113   57   58 2    
   114   57   59 am   BACKBONE|DICT|INTERRES
   115   59   60 1    
   116   59  125 1    
   117   60   61 1    
   118   60   62 1    
   119   60  126 1    
   120   61  127 1    
   121   61  128 1    
   122   61  129 1    
   123   62   63 2    
   124   62   64 am   BACKBONE|DICT|INTERRES
   125   64   65 1    
   126   64  130 1    
   127   65   66 1    
   128   65   69 1    
   129   65  131 1    
   130   66   67 am   BACKBONE|DICT|INTERRES
   131   66   68 2    
   132   67  132 1    
   133   67  133 1    
   134   69   70 1    
   135   69  134 1    
   136   69  135 1    
   137   70   71 1    
   138   71  136 1    
   139   71  137 1    
@<TRIPOS>SUBSTRUCTURE
     1 UNK         1 GROUP             0       ****    0 ROOT    
