@<TRIPOS>MOLECULE
3R136
137   139    1
SMALL
USER_CHARGES


@<TRIPOS>ATOM
      1 CA         28.3370   22.2086    6.6572 C.3       0 UNK        -0.1979 
      2 C          27.7393   22.2221    5.2578 C.2       0 UNK         0.4864 
      3 O          26.6457   21.6911    5.0550 O.2       0 UNK        -0.5359 
      4 N          28.4524   22.8162    4.2932 N.am      1 UNK        -0.4318 
      5 CA         28.0090   22.9766    2.9044 C.3       1 UNK         0.0824 
      6 C6         29.2028   23.1970    1.9418 C.3       12 UNK        -0.0944 
      7 S7         30.2805   21.7274    1.8577 S.3       12 UNK        -0.2672 
      8 C8         31.8917   22.4125    2.3802 C.3       12 UNK         0.0333 
      9 C9         32.5744   23.3590    1.3876 C.ar      12 UNK        -0.0807 
     10 C10        33.6849   24.0849    1.8291 C.ar      12 UNK        -0.0894 
     11 C11        34.3659   24.9478    0.9673 C.ar      12 UNK        -0.0804 
     12 C12        33.9161   25.0999   -0.3464 C.ar      12 UNK        -0.0824 
     13 C13        32.8092   24.3858   -0.8151 C.ar      12 UNK        -0.0762 
     14 C14        32.1559   23.5036    0.0564 C.ar      12 UNK        -0.0782 
     15 C15        32.3958   24.5822   -2.2766 C.3       12 UNK         0.0230 
     16 S16        30.7887   23.8715   -2.7873 S.3       12 UNK        -0.2608 
     17 C17        29.5787   24.8748   -1.8620 C.3       12 UNK        -0.0989 
     18 CA         29.4222   26.3182   -2.4234 C.3       5 UNK         0.0716 
     19 N          28.0249   26.7378   -2.4960 N.am      5 UNK        -0.4135 
     20 C          27.5024   27.5096   -3.4600 C.2       4 UNK         0.5031 
     21 O          28.0999   27.8257   -4.4898 O.2       4 UNK        -0.5229 
     22 CA         26.0709   28.0383   -3.2387 C.3       4 UNK         0.0329 
     23 CB         25.0450   27.1107   -3.9097 C.3       4 UNK        -0.2001 
     24 N          25.7245   28.1964   -1.8240 N.am      4 UNK        -0.4303 
     25 C          26.3235   29.0435   -0.9737 C.2       3 UNK         0.5044 
     26 O          27.1479   29.8901   -1.3180 O.2       3 UNK        -0.5152 
     27 CA         25.9770   28.9012    0.5203 C.3       3 UNK         0.0319 
     28 CB         24.9812   29.9927    0.9443 C.3       3 UNK        -0.2001 
     29 N          25.4485   27.5880    0.9166 N.am      3 UNK        -0.4354 
     30 C          26.0737   26.4113    0.7667 C.2       2 UNK         0.4964 
     31 O          27.1562   26.2723    0.1900 O.2       2 UNK        -0.5047 
     32 CA         25.3157   25.1738    1.2696 C.3       2 UNK         0.0288 
     33 CB         24.3796   24.6448    0.1701 C.3       2 UNK        -0.2113 
     34 N          26.2435   24.1112    1.6542 N.am      2 UNK        -0.4145 
     35 C          26.9780   24.1175    2.7747 C.2       1 UNK         0.5006 
     36 O          26.8650   24.9688    3.6621 O.2       1 UNK        -0.5103 
     37 C          30.1803   27.3583   -1.5795 C.2       5 UNK         0.5055 
     38 O          31.0282   28.0743   -2.1140 O.2       5 UNK        -0.5220 
     39 N          29.8338   27.4324   -0.2879 N.am      6 UNK        -0.4450 
     40 CA         30.4158   28.2948    0.7360 C.3       6 UNK         0.0367 
     41 CB         31.9179   28.0060    0.9203 C.3       6 UNK        -0.1929 
     42 C          29.6797   28.0112    2.0488 C.2       6 UNK         0.5070 
     43 O          29.4103   26.8462    2.3452 O.2       6 UNK        -0.5237 
     44 N          29.3875   29.0630    2.8179 N.am      7 UNK        -0.4739 
     45 CA         28.7655   28.9896    4.1369 C.3       7 UNK         0.0276 
     46 CB         27.2466   28.7647    3.9988 C.3       7 UNK        -0.1927 
     47 C          29.0641   30.2811    4.9085 C.2       7 UNK         0.5013 
     48 O          29.5365   31.2585    4.3163 O.2       7 UNK        -0.5193 
     49 N          28.7490   30.2638    6.2120 N.am      8 UNK        -0.4253 
     50 CA         28.8934   31.3620    7.1729 C.3       8 UNK         0.0242 
     51 CB         27.8902   32.4973    6.8601 C.3       8 UNK        -0.2000 
     52 C          30.3575   31.8239    7.2820 C.2       8 UNK         0.4948 
     53 O          31.1720   31.0972    7.8527 O.2       8 UNK        -0.5275 
     54 N          30.6673   33.0066    6.7355 N.am      9 UNK        -0.4246 
     55 CA         32.0138   33.5773    6.6922 C.3       9 UNK         0.0261 
     56 CB         31.9197   35.0656    6.3180 C.3       9 UNK        -0.1959 
     57 C          32.9640   32.8406    5.7308 C.2       9 UNK         0.5033 
     58 O          34.1763   32.8862    5.9471 O.2       9 UNK        -0.5390 
     59 N          32.4218   32.1871    4.6934 N.am      10 UNK        -0.4215 
     60 CA         33.1969   31.4082    3.7308 C.3       10 UNK         0.0240 
     61 CB         32.5113   31.4615    2.3555 C.3       10 UNK        -0.1982 
     62 C          33.3269   29.9647    4.2320 C.2       10 UNK         0.4970 
     63 O          32.3089   29.3281    4.5070 O.2       10 UNK        -0.4916 
     64 N          34.5707   29.4788    4.3252 N.am      11 UNK        -0.4279 
     65 CA         34.9357   28.1024    4.7135 C.3       11 UNK         0.1003 
     66 C          34.5599   27.7028    6.1751 C.2       11 UNK         0.5709 
     67 N          34.2592   28.6437    7.0623 N.am      11 UNK        -0.7358 
     68 O          34.5813   26.5255    6.5272 O.2       11 UNK        -0.4999 
     69 C69        34.4873   27.0468    3.6600 C.3       12 UNK        -0.0954 
     70 S70        35.2123   27.3725    2.0158 S.3       12 UNK        -0.2268 
     71 C71        35.6063   25.6935    1.4396 C.3       12 UNK         0.0203 
     72 H72        29.3116   22.6956    6.6893 H         1 UNK         0.0888 
     73 H73        27.6763   22.7266    7.3519 H         1 UNK         0.0888 
     74 H74        28.4597   21.1826    7.0032 H         1 UNK         0.0888 
     75 H75        29.3272   23.2630    4.5238 H         1 UNK         0.3017 
     76 H76        27.5018   22.0559    2.6062 H         1 UNK         0.0873 
     77 H77        29.7803   24.0762    2.2353 H         1 UNK         0.0745 
     78 H78        28.8539   23.3931    0.9267 H         1 UNK         0.0745 
     79 H79        31.7573   22.9216    3.3359 H         1 UNK         0.0705 
     80 H80        32.5659   21.5763    2.5701 H         1 UNK         0.0705 
     81 H81        34.0305   23.9668    2.8471 H         1 UNK         0.1334 
     82 H82        34.4407   25.7725   -1.0118 H         1 UNK         0.1417 
     83 H83        31.3217   22.9235   -0.3061 H         1 UNK         0.1562 
     84 H84        33.1669   24.1327   -2.9036 H         1 UNK         0.0748 
     85 H85        32.3992   25.6460   -2.5159 H         1 UNK         0.0748 
     86 H86        29.8220   24.8507   -0.7989 H         1 UNK         0.0940 
     87 H87        28.6297   24.3414   -1.9391 H         1 UNK         0.0940 
     88 H88        29.8432   26.3450   -3.4310 H         1 UNK         0.0703 
     89 H89        27.4785   26.5702   -1.6560 H         1 UNK         0.3081 
     90 H90        26.0069   29.0214   -3.7100 H         1 UNK         0.0719 
     91 H91        25.2629   26.9929   -4.9722 H         1 UNK         0.0809 
     92 H92        25.0474   26.1148   -3.4645 H         1 UNK         0.0809 
     93 H93        24.0346   27.5125   -3.8314 H         1 UNK         0.0809 
     94 H94        25.0430   27.5539   -1.4480 H         1 UNK         0.2990 
     95 H95        26.9070   29.0533    1.0703 H         1 UNK         0.0690 
     96 H96        25.3677   30.9859    0.7108 H         1 UNK         0.0788 
     97 H97        24.7909   29.9667    2.0172 H         1 UNK         0.0788 
     98 H98        24.0246   29.8865    0.4310 H         1 UNK         0.0788 
     99 H99        24.5452   27.5953    1.3691 H         1 UNK         0.2993 
    100 H100       24.7204   25.4513    2.1426 H         1 UNK         0.0949 
    101 H101       23.8265   23.7683    0.5089 H         1 UNK         0.0767 
    102 H102       23.6434   25.3972   -0.1161 H         1 UNK         0.0767 
    103 H103       24.9290   24.3667   -0.7307 H         1 UNK         0.0767 
    104 H104       26.4131   23.3949    0.9636 H         1 UNK         0.3013 
    105 H105       29.0863   26.8359    0.0625 H         1 UNK         0.3121 
    106 H106       30.2666   29.3364    0.4452 H         1 UNK         0.0774 
    107 H107       32.3200   28.5578    1.7687 H         1 UNK         0.0815 
    108 H108       32.0976   26.9478    1.1143 H         1 UNK         0.0815 
    109 H109       32.5043   28.2917    0.0480 H         1 UNK         0.0815 
    110 H110       29.6872   29.9952    2.5606 H         1 UNK         0.2987 
    111 H111       29.2128   28.1584    4.6873 H         1 UNK         0.0949 
    112 H112       26.7692   28.6649    4.9739 H         1 UNK         0.0806 
    113 H113       26.7654   29.5965    3.4846 H         1 UNK         0.0806 
    114 H114       27.0272   27.8513    3.4459 H         1 UNK         0.0806 
    115 H115       28.3983   29.3993    6.6005 H         1 UNK         0.3010 
    116 H116       28.6311   30.9564    8.1514 H         1 UNK         0.0829 
    117 H117       28.0322   32.9216    5.8656 H         1 UNK         0.0813 
    118 H118       26.8644   32.1323    6.9125 H         1 UNK         0.0813 
    119 H119       27.9749   33.3088    7.5843 H         1 UNK         0.0813 
    120 H120       29.9352   33.5226    6.2687 H         1 UNK         0.3038 
    121 H121       32.4434   33.5049    7.6939 H         1 UNK         0.0769 
    122 H122       31.4827   35.2071    5.3286 H         1 UNK         0.0811 
    123 H123       32.9080   35.5277    6.3063 H         1 UNK         0.0811 
    124 H124       31.3145   35.6189    7.0363 H         1 UNK         0.0811 
    125 H125       31.4115   32.1022    4.6306 H         1 UNK         0.3204 
    126 H126       34.1918   31.8453    3.6197 H         1 UNK         0.0748 
    127 H127       33.0887   30.9117    1.6111 H         1 UNK         0.0771 
    128 H128       31.5123   31.0278    2.3828 H         1 UNK         0.0771 
    129 H129       32.4191   32.4878    1.9997 H         1 UNK         0.0771 
    130 H130       35.3474   30.0823    4.0978 H         1 UNK         0.2980 
    131 H131       36.0261   28.0942    4.7199 H         1 UNK         0.0545 
    132 H132       34.0271   28.3765    8.0055 H         1 UNK         0.3459 
    133 H133       34.2297   29.6129    6.7895 H         1 UNK         0.3459 
    134 H134       33.4006   27.0185    3.5680 H         1 UNK         0.0616 
    135 H135       34.7904   26.0480    3.9761 H         1 UNK         0.0616 
    136 H136       36.3197   25.7690    0.6177 H         1 UNK         0.0634 
    137 H137       36.1161   25.1386    2.2287 H         1 UNK         0.0634 
@<TRIPOS>BOND
     1    1    2 1    
     2    1   72 1    
     3    1   73 1    
     4    1   74 1    
     5    2    3 2    
     6    2    4 am   BACKBONE|DICT|INTERRES
     7    4    5 1    
     8    4   75 1    
     9    5    6 1    
    10    5   35 1    
    11    5   76 1    
    12    6    7 1    
    13    6   77 1    
    14    6   78 1    
    15    7    8 1    
    16    8    9 1    
    17    8   79 1    
    18    8   80 1    
    19    9   10 ar   
    20    9   14 ar   
    21   10   11 ar   
    22   10   81 1    
    23   11   12 ar   
    24   11   71 1    
    25   12   13 ar   
    26   12   82 1    
    27   13   14 ar   
    28   13   15 1    
    29   14   83 1    
    30   15   16 1    
    31   15   84 1    
    32   15   85 1    
    33   16   17 1    
    34   17   18 1    
    35   17   86 1    
    36   17   87 1    
    37   18   19 1    
    38   18   37 1    
    39   18   88 1    
    40   19   20 am   BACKBONE|DICT|INTERRES
    41   19   89 1    
    42   20   21 2    
    43   20   22 1    
    44   22   23 1    
    45   22   24 1    
    46   22   90 1    
    47   23   91 1    
    48   23   92 1    
    49   23   93 1    
    50   24   25 am   BACKBONE|DICT|INTERRES
    51   24   94 1    
    52   25   26 2    
    53   25   27 1    
    54   27   28 1    
    55   27   29 1    
    56   27   95 1    
    57   28   96 1    
    58   28   97 1    
    59   28   98 1    
    60   29   30 am   BACKBONE|DICT|INTERRES
    61   29   99 1    
    62   30   31 2    
    63   30   32 1    
    64   32   33 1    
    65   32   34 1    
    66   32  100 1    
    67   33  101 1    
    68   33  102 1    
    69   33  103 1    
    70   34   35 am   BACKBONE|DICT|INTERRES
    71   34  104 1    
    72   35   36 2    
    73   37   38 2    
    74   37   39 am   BACKBONE|DICT|INTERRES
    75   39   40 1    
    76   39  105 1    
    77   40   41 1    
    78   40   42 1    
    79   40  106 1    
    80   41  107 1    
    81   41  108 1    
    82   41  109 1    
    83   42   43 2    
    84   42   44 am   BACKBONE|DICT|INTERRES
    85   44   45 1    
    86   44  110 1    
    87   45   46 1    
    88   45   47 1    
    89   45  111 1    
    90   46  112 1    
    91   46  113 1    
    92   46  114 1    
    93   47   48 2    
    94   47   49 am   BACKBONE|DICT|INTERRES
    95   49   50 1    
    96   49  115 1    
    97   50   51 1    
    98   50   52 1    
    99   50  116 1    
   100   51  117 1    
   101   51  118 1    
   102   51  119 1    
   103   52   53 2    
   104   52   54 am   BACKBONE|DICT|INTERRES
   105   54   55 1    
   106   54  120 1    
   107   55   56 1    
   108   55   57 1    
   109   55  121 1    
   110   56  122 1    
   111   56  123 1    
   112   56  124 1    
   113   57   58 2    
   114   57   59 am   BACKBONE|DICT|INTERRES
   115   59   60 1    
   116   59  125 1    
   117   60   61 1    
   118   60   62 1    
   119   60  126 1    
   120   61  127 1    
   121   61  128 1    
   122   61  129 1    
   123   62   63 2    
   124   62   64 am   BACKBONE|DICT|INTERRES
   125   64   65 1    
   126   64  130 1    
   127   65   66 1    
   128   65   69 1    
   129   65  131 1    
   130   66   67 am   BACKBONE|DICT|INTERRES
   131   66   68 2    
   132   67  132 1    
   133   67  133 1    
   134   69   70 1    
   135   69  134 1    
   136   69  135 1    
   137   70   71 1    
   138   71  136 1    
   139   71  137 1    
@<TRIPOS>SUBSTRUCTURE
     1 UNK         1 GROUP             0       ****    0 ROOT    
