@<TRIPOS>MOLECULE
3R136
137   139    1
SMALL
USER_CHARGES


@<TRIPOS>ATOM
      1 CA         30.0573   18.7728    0.3627 C.3       0 UNK        -0.1979 
      2 C          29.2134   19.8513    1.0259 C.2       0 UNK         0.4864 
      3 O          28.1012   19.5637    1.4699 O.2       0 UNK        -0.5359 
      4 N          29.7361   21.0863    1.0835 N.am      1 UNK        -0.4318 
      5 CA         29.1223   22.2754    1.7020 C.3       1 UNK         0.0824 
      6 C6         28.9362   22.1506    3.2469 C.3       12 UNK        -0.0944 
      7 S7         30.3967   21.5090    4.1490 S.3       12 UNK        -0.2672 
      8 C8         31.1116   23.0017    4.9092 C.3       12 UNK         0.0333 
      9 C9         31.8734   23.8237    3.8833 C.ar      12 UNK        -0.0807 
     10 C10        33.2181   23.5555    3.6160 C.ar      12 UNK        -0.0894 
     11 C11        33.8997   24.2752    2.6304 C.ar      12 UNK        -0.0804 
     12 C12        33.2224   25.2619    1.9069 C.ar      12 UNK        -0.0824 
     13 C13        31.8743   25.5374    2.1603 C.ar      12 UNK        -0.0762 
     14 C14        31.2177   24.8287    3.1732 C.ar      12 UNK        -0.0782 
     15 C15        31.1594   26.5896    1.3137 C.3       12 UNK         0.0230 
     16 S16        29.3738   26.2870    1.0784 S.3       12 UNK        -0.2608 
     17 C17        28.6687   27.1696    2.5142 C.3       12 UNK        -0.0989 
     18 CA         28.2837   28.6211    2.1517 C.3       5 UNK         0.0716 
     19 N          27.3004   28.6779    1.0786 N.am      5 UNK        -0.4135 
     20 C          27.0080   29.7537    0.3438 C.2       4 UNK         0.5031 
     21 O          27.4879   30.8712    0.5540 O.2       4 UNK        -0.5229 
     22 CA         26.0597   29.5130   -0.8529 C.3       4 UNK         0.0329 
     23 CB         25.8793   30.7748   -1.7175 C.3       4 UNK        -0.2001 
     24 N          26.5156   28.4050   -1.7087 N.am      4 UNK        -0.4303 
     25 C          26.4581   27.1012   -1.3961 C.2       3 UNK         0.5044 
     26 O          25.9174   26.6867   -0.3669 O.2       3 UNK        -0.5152 
     27 CA         27.1617   26.1200   -2.3574 C.3       3 UNK         0.0319 
     28 CB         28.5845   26.5870   -2.7235 C.3       3 UNK        -0.2001 
     29 N          27.2464   24.7694   -1.7897 N.am      3 UNK        -0.4354 
     30 C          26.2463   23.8780   -1.7914 C.2       2 UNK         0.4964 
     31 O          25.1558   24.0836   -2.3279 O.2       2 UNK        -0.5047 
     32 CA         26.4906   22.5145   -1.1186 C.3       2 UNK         0.0288 
     33 CB         26.5210   21.3959   -2.1756 C.3       2 UNK        -0.2113 
     34 N          27.7228   22.4298   -0.3260 N.am      2 UNK        -0.4145 
     35 C          27.8137   22.7059    0.9849 C.2       1 UNK         0.5006 
     36 O          26.9052   23.2384    1.6257 O.2       1 UNK        -0.5103 
     37 C          27.8135   29.4096    3.3843 C.2       5 UNK         0.5055 
     38 O          26.6102   29.5323    3.6261 O.2       5 UNK        -0.5220 
     39 N          28.7895   29.9625    4.1124 N.am      6 UNK        -0.4450 
     40 CA         28.6929   30.8912    5.2462 C.3       6 UNK         0.0367 
     41 CB         27.8346   30.3291    6.3958 C.3       6 UNK        -0.1929 
     42 C          28.2454   32.3063    4.8377 C.2       6 UNK         0.5070 
     43 O          28.7584   33.2752    5.3970 O.2       6 UNK        -0.5237 
     44 N          27.3389   32.4128    3.8563 N.am      7 UNK        -0.4739 
     45 CA         26.9480   33.6652    3.2088 C.3       7 UNK         0.0276 
     46 CB         25.6772   33.4478    2.3706 C.3       7 UNK        -0.1927 
     47 C          28.0929   34.2369    2.3565 C.2       7 UNK         0.5013 
     48 O          28.4412   35.4064    2.5243 O.2       7 UNK        -0.5193 
     49 N          28.6723   33.3992    1.4834 N.am      8 UNK        -0.4253 
     50 CA         29.8682   33.7278    0.7059 C.3       8 UNK         0.0242 
     51 CB         29.9323   32.8428   -0.5522 C.3       8 UNK        -0.2000 
     52 C          31.1389   33.5868    1.5603 C.2       8 UNK         0.4948 
     53 O          31.8579   34.5678    1.7530 O.2       8 UNK        -0.5275 
     54 N          31.3788   32.3685    2.0571 N.am      9 UNK        -0.4246 
     55 CA         32.5154   31.9352    2.8699 C.3       9 UNK         0.0261 
     56 CB         33.8263   32.0075    2.0578 C.3       9 UNK        -0.1959 
     57 C          32.2336   30.4926    3.3131 C.2       9 UNK         0.5033 
     58 O          31.2502   29.9045    2.8576 O.2       9 UNK        -0.5390 
     59 N          33.0825   29.9294    4.1752 N.am      10 UNK        -0.4215 
     60 CA         33.0466   28.5240    4.5777 C.3       10 UNK         0.0240 
     61 CB         31.9579   28.2851    5.6420 C.3       10 UNK        -0.1982 
     62 C          34.4305   28.1325    5.1019 C.2       10 UNK         0.4970 
     63 O          35.1694   29.0040    5.5684 O.2       10 UNK        -0.4916 
     64 N          34.7484   26.8357    5.0265 N.am      11 UNK        -0.4279 
     65 CA         36.0218   26.2671    5.5012 C.3       11 UNK         0.1003 
     66 C          36.1013   26.0612    7.0427 C.2       11 UNK         0.5709 
     67 N          35.0219   26.2312    7.7976 N.am      11 UNK        -0.7358 
     68 O          37.1690   25.7510    7.5660 O.2       11 UNK        -0.4999 
     69 C69        36.3948   24.9661    4.7431 C.3       12 UNK        -0.0954 
     70 S70        36.5026   25.2148    2.9379 S.3       12 UNK        -0.2268 
     71 C71        35.3523   23.9523    2.3091 C.3       12 UNK         0.0203 
     72 H72        29.5276   18.3549   -0.4931 H         1 UNK         0.0888 
     73 H73        31.0147   19.1594    0.0136 H         1 UNK         0.0888 
     74 H74        30.2554   17.9664    1.0683 H         1 UNK         0.0888 
     75 H75        30.6618   21.2371    0.7066 H         1 UNK         0.3017 
     76 H76        29.8256   23.0886    1.5230 H         1 UNK         0.0873 
     77 H77        28.6492   23.1133    3.6728 H         1 UNK         0.0745 
     78 H78        28.1075   21.4752    3.4671 H         1 UNK         0.0745 
     79 H79        31.7864   22.6986    5.7112 H         1 UNK         0.0705 
     80 H80        30.3267   23.5950    5.3809 H         1 UNK         0.0705 
     81 H81        33.7251   22.7698    4.1595 H         1 UNK         0.1334 
     82 H82        33.7468   25.8045    1.1316 H         1 UNK         0.1417 
     83 H83        30.1774   25.0169    3.3891 H         1 UNK         0.1562 
     84 H84        31.6128   26.6236    0.3219 H         1 UNK         0.0748 
     85 H85        31.3152   27.5746    1.7508 H         1 UNK         0.0748 
     86 H86        29.3901   27.1629    3.3334 H         1 UNK         0.0940 
     87 H87        27.7966   26.6153    2.8671 H         1 UNK         0.0940 
     88 H88        29.1734   29.1147    1.7600 H         1 UNK         0.0703 
     89 H89        26.8492   27.8025    0.8285 H         1 UNK         0.3081 
     90 H90        25.0840   29.2511   -0.4382 H         1 UNK         0.0719 
     91 H91        26.8231   31.1018   -2.1559 H         1 UNK         0.0809 
     92 H92        25.1714   30.6039   -2.5286 H         1 UNK         0.0809 
     93 H93        25.4931   31.6037   -1.1225 H         1 UNK         0.0809 
     94 H94        26.9965   28.6707   -2.5558 H         1 UNK         0.2990 
     95 H95        26.5704   26.0802   -3.2747 H         1 UNK         0.0690 
     96 H96        29.0933   25.8509   -3.3464 H         1 UNK         0.0788 
     97 H97        29.1986   26.7536   -1.8383 H         1 UNK         0.0788 
     98 H98        28.5689   27.5183   -3.2902 H         1 UNK         0.0788 
     99 H99        28.0874   24.5434   -1.2797 H         1 UNK         0.2993 
    100 H100       25.6364   22.3310   -0.4627 H         1 UNK         0.0949 
    101 H101       27.3491   21.5222   -2.8742 H         1 UNK         0.0767 
    102 H102       26.6192   20.4145   -1.7105 H         1 UNK         0.0767 
    103 H103       25.6001   21.3826   -2.7606 H         1 UNK         0.0767 
    104 H104       28.5180   21.9999   -0.7758 H         1 UNK         0.3013 
    105 H105       29.7372   29.8400    3.7509 H         1 UNK         0.3121 
    106 H106       29.7128   30.9879    5.6226 H         1 UNK         0.0774 
    107 H107       27.8985   30.9729    7.2739 H         1 UNK         0.0815 
    108 H108       26.7805   30.2593    6.1267 H         1 UNK         0.0815 
    109 H109       28.1730   29.3372    6.6950 H         1 UNK         0.0815 
    110 H110       26.9436   31.5542    3.4883 H         1 UNK         0.2987 
    111 H111       26.7182   34.3938    3.9896 H         1 UNK         0.0949 
    112 H112       25.3680   34.3748    1.8860 H         1 UNK         0.0806 
    113 H113       25.8246   32.7046    1.5868 H         1 UNK         0.0806 
    114 H114       24.8459   33.1155    2.9927 H         1 UNK         0.0806 
    115 H115       28.2814   32.4690    1.3556 H         1 UNK         0.3010 
    116 H116       29.8001   34.7669    0.3760 H         1 UNK         0.0829 
    117 H117       29.0616   33.0016   -1.1888 H         1 UNK         0.0813 
    118 H118       30.8164   33.0747   -1.1475 H         1 UNK         0.0813 
    119 H119       29.9714   31.7805   -0.3085 H         1 UNK         0.0813 
    120 H120       30.7272   31.6157    1.8690 H         1 UNK         0.3038 
    121 H121       32.5819   32.5694    3.7558 H         1 UNK         0.0769 
    122 H122       33.7756   31.3894    1.1604 H         1 UNK         0.0811 
    123 H123       34.6785   31.6624    2.6442 H         1 UNK         0.0811 
    124 H124       34.0533   33.0269    1.7467 H         1 UNK         0.0811 
    125 H125       33.8899   30.4386    4.5155 H         1 UNK         0.3204 
    126 H126       32.8344   27.9116    3.6990 H         1 UNK         0.0748 
    127 H127       31.9483   27.2443    5.9679 H         1 UNK         0.0771 
    128 H128       32.1161   28.9056    6.5249 H         1 UNK         0.0771 
    129 H129       30.9639   28.5031    5.2543 H         1 UNK         0.0771 
    130 H130       34.0951   26.1808    4.6217 H         1 UNK         0.2980 
    131 H131       36.8045   26.9936    5.2734 H         1 UNK         0.0545 
    132 H132       34.1420   26.4900    7.3831 H         1 UNK         0.3459 
    133 H133       35.0924   26.0993    8.7942 H         1 UNK         0.3459 
    134 H134       35.6803   24.1746    4.9718 H         1 UNK         0.0616 
    135 H135       37.3675   24.5973    5.0738 H         1 UNK         0.0616 
    136 H136       35.6336   22.9774    2.7106 H         1 UNK         0.0634 
    137 H137       35.4720   23.8800    1.2272 H         1 UNK         0.0634 
@<TRIPOS>BOND
     1    1    2 1    
     2    1   72 1    
     3    1   73 1    
     4    1   74 1    
     5    2    3 2    
     6    2    4 am   BACKBONE|DICT|INTERRES
     7    4    5 1    
     8    4   75 1    
     9    5    6 1    
    10    5   35 1    
    11    5   76 1    
    12    6    7 1    
    13    6   77 1    
    14    6   78 1    
    15    7    8 1    
    16    8    9 1    
    17    8   79 1    
    18    8   80 1    
    19    9   10 ar   
    20    9   14 ar   
    21   10   11 ar   
    22   10   81 1    
    23   11   12 ar   
    24   11   71 1    
    25   12   13 ar   
    26   12   82 1    
    27   13   14 ar   
    28   13   15 1    
    29   14   83 1    
    30   15   16 1    
    31   15   84 1    
    32   15   85 1    
    33   16   17 1    
    34   17   18 1    
    35   17   86 1    
    36   17   87 1    
    37   18   19 1    
    38   18   37 1    
    39   18   88 1    
    40   19   20 am   BACKBONE|DICT|INTERRES
    41   19   89 1    
    42   20   21 2    
    43   20   22 1    
    44   22   23 1    
    45   22   24 1    
    46   22   90 1    
    47   23   91 1    
    48   23   92 1    
    49   23   93 1    
    50   24   25 am   BACKBONE|DICT|INTERRES
    51   24   94 1    
    52   25   26 2    
    53   25   27 1    
    54   27   28 1    
    55   27   29 1    
    56   27   95 1    
    57   28   96 1    
    58   28   97 1    
    59   28   98 1    
    60   29   30 am   BACKBONE|DICT|INTERRES
    61   29   99 1    
    62   30   31 2    
    63   30   32 1    
    64   32   33 1    
    65   32   34 1    
    66   32  100 1    
    67   33  101 1    
    68   33  102 1    
    69   33  103 1    
    70   34   35 am   BACKBONE|DICT|INTERRES
    71   34  104 1    
    72   35   36 2    
    73   37   38 2    
    74   37   39 am   BACKBONE|DICT|INTERRES
    75   39   40 1    
    76   39  105 1    
    77   40   41 1    
    78   40   42 1    
    79   40  106 1    
    80   41  107 1    
    81   41  108 1    
    82   41  109 1    
    83   42   43 2    
    84   42   44 am   BACKBONE|DICT|INTERRES
    85   44   45 1    
    86   44  110 1    
    87   45   46 1    
    88   45   47 1    
    89   45  111 1    
    90   46  112 1    
    91   46  113 1    
    92   46  114 1    
    93   47   48 2    
    94   47   49 am   BACKBONE|DICT|INTERRES
    95   49   50 1    
    96   49  115 1    
    97   50   51 1    
    98   50   52 1    
    99   50  116 1    
   100   51  117 1    
   101   51  118 1    
   102   51  119 1    
   103   52   53 2    
   104   52   54 am   BACKBONE|DICT|INTERRES
   105   54   55 1    
   106   54  120 1    
   107   55   56 1    
   108   55   57 1    
   109   55  121 1    
   110   56  122 1    
   111   56  123 1    
   112   56  124 1    
   113   57   58 2    
   114   57   59 am   BACKBONE|DICT|INTERRES
   115   59   60 1    
   116   59  125 1    
   117   60   61 1    
   118   60   62 1    
   119   60  126 1    
   120   61  127 1    
   121   61  128 1    
   122   61  129 1    
   123   62   63 2    
   124   62   64 am   BACKBONE|DICT|INTERRES
   125   64   65 1    
   126   64  130 1    
   127   65   66 1    
   128   65   69 1    
   129   65  131 1    
   130   66   67 am   BACKBONE|DICT|INTERRES
   131   66   68 2    
   132   67  132 1    
   133   67  133 1    
   134   69   70 1    
   135   69  134 1    
   136   69  135 1    
   137   70   71 1    
   138   71  136 1    
   139   71  137 1    
@<TRIPOS>SUBSTRUCTURE
     1 UNK         1 GROUP             0       ****    0 ROOT    
