@<TRIPOS>MOLECULE
3R136
137   139    1
SMALL
USER_CHARGES


@<TRIPOS>ATOM
      1 CA         31.2693   31.2867   -3.5126 C.3       0 UNK        -0.1979 
      2 C          30.5293   30.4951   -2.4447 C.2       0 UNK         0.4864 
      3 O          30.1175   31.0696   -1.4367 O.2       0 UNK        -0.5359 
      4 N          30.3685   29.1817   -2.6550 N.am      1 UNK        -0.4318 
      5 CA         29.6416   28.2780   -1.7589 C.3       1 UNK         0.0824 
      6 C6         29.9817   26.7939   -2.0588 C.3       12 UNK        -0.0944 
      7 S7         29.8267   25.7380   -0.5790 S.3       12 UNK        -0.2672 
      8 C8         31.5680   25.3056   -0.2838 C.3       12 UNK         0.0333 
      9 C9         31.7477   24.6259    1.0630 C.ar      12 UNK        -0.0807 
     10 C10        32.2014   25.3522    2.1685 C.ar      12 UNK        -0.0894 
     11 C11        32.3762   24.7293    3.4063 C.ar      12 UNK        -0.0804 
     12 C12        32.0661   23.3742    3.5418 C.ar      12 UNK        -0.0824 
     13 C13        31.5934   22.6417    2.4485 C.ar      12 UNK        -0.0762 
     14 C14        31.4596   23.2660    1.2050 C.ar      12 UNK        -0.0782 
     15 C15        31.1830   21.1870    2.6260 C.3       12 UNK         0.0230 
     16 S16        29.3805   20.9579    2.4570 S.3       12 UNK        -0.2608 
     17 C17        28.7132   22.2982    3.5039 C.3       12 UNK        -0.0989 
     18 CA         28.1737   23.5097    2.6825 C.3       5 UNK         0.0716 
     19 N          26.8407   23.2428    2.1479 N.am      5 UNK        -0.4135 
     20 C          26.5640   22.6495    0.9791 C.2       4 UNK         0.5031 
     21 O          27.4046   22.3444    0.1329 O.2       4 UNK        -0.5229 
     22 CA         25.0824   22.3317    0.7144 C.3       4 UNK         0.0329 
     23 CB         24.5790   21.2116    1.6419 C.3       4 UNK        -0.2001 
     24 N          24.2553   23.5251    0.8819 N.am      4 UNK        -0.4303 
     25 C          24.1110   24.4677   -0.0575 C.2       3 UNK         0.5044 
     26 O          24.4936   24.3366   -1.2227 O.2       3 UNK        -0.5152 
     27 CA         23.4346   25.7899    0.3637 C.3       3 UNK         0.0319 
     28 CB         23.2028   25.9291    1.8874 C.3       3 UNK        -0.2001 
     29 N          24.1719   26.9559   -0.1402 N.am      3 UNK        -0.4354 
     30 C          25.4696   27.2294    0.0644 C.2       2 UNK         0.4964 
     31 O          26.2288   26.5340    0.7426 O.2       2 UNK        -0.5047 
     32 CA         25.9880   28.5248   -0.5676 C.3       2 UNK         0.0288 
     33 CB         25.6125   29.7272    0.3129 C.3       2 UNK        -0.2113 
     34 N          27.4432   28.4521   -0.6895 N.am      2 UNK        -0.4145 
     35 C          28.1229   28.5362   -1.8366 C.2       1 UNK         0.5006 
     36 O          27.6027   28.7732   -2.9315 O.2       1 UNK        -0.5103 
     37 C          28.0649   24.7702    3.5569 C.2       5 UNK         0.5055 
     38 O          27.7254   24.6422    4.7358 O.2       5 UNK        -0.5220 
     39 N          28.3120   25.9564    2.9853 N.am      6 UNK        -0.4450 
     40 CA         28.2494   27.2453    3.6790 C.3       6 UNK         0.0367 
     41 CB         26.7849   27.6096    4.0173 C.3       6 UNK        -0.1929 
     42 C          28.8860   28.3538    2.8273 C.2       6 UNK         0.5070 
     43 O          29.1544   28.1539    1.6424 O.2       6 UNK        -0.5237 
     44 N          29.0550   29.5276    3.4490 N.am      7 UNK        -0.4739 
     45 CA         29.3821   30.8456    2.8845 C.3       7 UNK         0.0276 
     46 CB         28.3401   31.2933    1.8448 C.3       7 UNK        -0.1927 
     47 C          30.8020   31.0469    2.3337 C.2       7 UNK         0.5013 
     48 O          31.3330   32.1440    2.5199 O.2       7 UNK        -0.5193 
     49 N          31.4053   30.0413    1.6833 N.am      8 UNK        -0.4253 
     50 CA         32.7448   30.1485    1.0842 C.3       8 UNK         0.0242 
     51 CB         33.0773   28.8965    0.2603 C.3       8 UNK        -0.2000 
     52 C          33.8115   30.4047    2.1621 C.2       8 UNK         0.4948 
     53 O          34.0574   29.5270    2.9922 O.2       8 UNK        -0.5275 
     54 N          34.3436   31.6376    2.1854 N.am      9 UNK        -0.4246 
     55 CA         35.2054   32.2107    3.2326 C.3       9 UNK         0.0261 
     56 CB         36.6022   31.5544    3.2005 C.3       9 UNK        -0.1959 
     57 C          34.5656   32.1654    4.6395 C.2       9 UNK         0.5033 
     58 O          35.2831   32.0438    5.6350 O.2       9 UNK        -0.5390 
     59 N          33.2220   32.1871    4.6906 N.am      10 UNK        -0.4215 
     60 CA         32.3610   31.9372    5.8555 C.3       10 UNK         0.0240 
     61 CB         32.4623   33.1059    6.8582 C.3       10 UNK        -0.1982 
     62 C          32.5948   30.5646    6.5288 C.2       10 UNK         0.4970 
     63 O          32.2268   30.3985    7.6928 O.2       10 UNK        -0.4916 
     64 N          33.2231   29.6224    5.8078 N.am      11 UNK        -0.4279 
     65 CA         33.7860   28.3661    6.3244 C.3       11 UNK         0.1003 
     66 C          34.8803   28.5575    7.4222 C.2       11 UNK         0.5709 
     67 N          35.5635   29.6964    7.4808 N.am      11 UNK        -0.7358 
     68 O          35.1445   27.6547    8.2132 O.2       11 UNK        -0.4999 
     69 C69        32.6994   27.3132    6.6887 C.3       12 UNK        -0.0954 
     70 S70        31.7652   26.7457    5.2276 S.3       12 UNK        -0.2268 
     71 C71        32.9366   25.5089    4.5853 C.3       12 UNK         0.0203 
     72 H72        30.6253   32.0699   -3.9117 H         1 UNK         0.0888 
     73 H73        32.1537   31.7574   -3.0839 H         1 UNK         0.0888 
     74 H74        31.5892   30.6551   -4.3412 H         1 UNK         0.0888 
     75 H75        30.6918   28.7754   -3.5210 H         1 UNK         0.3017 
     76 H76        29.9750   28.5160   -0.7478 H         1 UNK         0.0873 
     77 H77        29.3528   26.3877   -2.8539 H         1 UNK         0.0745 
     78 H78        31.0040   26.7095   -2.4308 H         1 UNK         0.0745 
     79 H79        32.1819   26.2043   -0.3356 H         1 UNK         0.0705 
     80 H80        31.9167   24.6482   -1.0816 H         1 UNK         0.0705 
     81 H81        32.4207   26.4044    2.0770 H         1 UNK         0.1334 
     82 H82        32.1825   22.8914    4.5027 H         1 UNK         0.1417 
     83 H83        31.0867   22.7035    0.3594 H         1 UNK         0.1562 
     84 H84        31.4952   20.8123    3.6021 H         1 UNK         0.0748 
     85 H85        31.6926   20.5713    1.8836 H         1 UNK         0.0748 
     86 H86        29.4873   22.6085    4.2072 H         1 UNK         0.0940 
     87 H87        27.9209   21.8808    4.1281 H         1 UNK         0.0940 
     88 H88        28.8555   23.7368    1.8618 H         1 UNK         0.0703 
     89 H89        26.0804   23.5057    2.7572 H         1 UNK         0.3081 
     90 H90        24.9939   21.9731   -0.3138 H         1 UNK         0.0719 
     91 H91        24.6043   21.5026    2.6925 H         1 UNK         0.0809 
     92 H92        23.5547   20.9288    1.3983 H         1 UNK         0.0809 
     93 H93        25.1941   20.3165    1.5376 H         1 UNK         0.0809 
     94 H94        23.8855   23.7085    1.8029 H         1 UNK         0.2990 
     95 H95        22.4595   25.8029   -0.1252 H         1 UNK         0.0690 
     96 H96        22.7324   26.8838    2.1232 H         1 UNK         0.0788 
     97 H97        24.1356   25.8784    2.4510 H         1 UNK         0.0788 
     98 H98        22.5373   25.1513    2.2640 H         1 UNK         0.0788 
     99 H99        23.6401   27.5809   -0.7297 H         1 UNK         0.2993 
    100 H100       25.5235   28.6402   -1.5493 H         1 UNK         0.0949 
    101 H101       24.5303   29.8506    0.3687 H         1 UNK         0.0767 
    102 H102       25.9771   29.6025    1.3329 H         1 UNK         0.0767 
    103 H103       26.0233   30.6550   -0.0856 H         1 UNK         0.0767 
    104 H104       27.9441   28.1846    0.1564 H         1 UNK         0.3013 
    105 H105       28.5604   26.0194    2.0034 H         1 UNK         0.3121 
    106 H106       28.8234   27.1635    4.6038 H         1 UNK         0.0774 
    107 H107       26.7196   28.5646    4.5393 H         1 UNK         0.0815 
    108 H108       26.1745   27.6917    3.1185 H         1 UNK         0.0815 
    109 H109       26.3192   26.8687    4.6661 H         1 UNK         0.0815 
    110 H110       28.8437   29.5470    4.4372 H         1 UNK         0.2987 
    111 H111       29.2967   31.5347    3.7266 H         1 UNK         0.0949 
    112 H112       28.5442   32.3080    1.5001 H         1 UNK         0.0806 
    113 H113       28.3472   30.6523    0.9632 H         1 UNK         0.0806 
    114 H114       27.3355   31.2940    2.2660 H         1 UNK         0.0806 
    115 H115       30.8912   29.1741    1.5700 H         1 UNK         0.3010 
    116 H116       32.7223   30.9957    0.3950 H         1 UNK         0.0829 
    117 H117       32.3066   28.6816   -0.4772 H         1 UNK         0.0813 
    118 H118       34.0131   29.0324   -0.2831 H         1 UNK         0.0813 
    119 H119       33.2031   28.0212    0.8922 H         1 UNK         0.0813 
    120 H120       34.0361   32.2927    1.4788 H         1 UNK         0.3038 
    121 H121       35.3274   33.2673    2.9901 H         1 UNK         0.0769 
    122 H122       37.2889   32.0596    3.8807 H         1 UNK         0.0811 
    123 H123       37.0413   31.6036    2.2042 H         1 UNK         0.0811 
    124 H124       36.5629   30.5061    3.4986 H         1 UNK         0.0811 
    125 H125       32.7190   32.2780    3.8093 H         1 UNK         0.3204 
    126 H126       31.3386   31.9138    5.4767 H         1 UNK         0.0748 
    127 H127       31.7241   33.0070    7.6550 H         1 UNK         0.0771 
    128 H128       33.4449   33.1497    7.3291 H         1 UNK         0.0771 
    129 H129       32.2813   34.0636    6.3701 H         1 UNK         0.0771 
    130 H130       33.4737   29.8217    4.8441 H         1 UNK         0.2980 
    131 H131       34.3544   27.9604    5.4880 H         1 UNK         0.0545 
    132 H132       36.2749   29.8046    8.1855 H         1 UNK         0.3459 
    133 H133       35.3824   30.4532    6.8285 H         1 UNK         0.3459 
    134 H134       33.1407   26.4346    7.1615 H         1 UNK         0.0616 
    135 H135       31.9968   27.7196    7.4170 H         1 UNK         0.0616 
    136 H136       33.2165   24.8278    5.3905 H         1 UNK         0.0634 
    137 H137       33.8538   26.0090    4.2721 H         1 UNK         0.0634 
@<TRIPOS>BOND
     1    1    2 1    
     2    1   72 1    
     3    1   73 1    
     4    1   74 1    
     5    2    3 2    
     6    2    4 am   BACKBONE|DICT|INTERRES
     7    4    5 1    
     8    4   75 1    
     9    5    6 1    
    10    5   35 1    
    11    5   76 1    
    12    6    7 1    
    13    6   77 1    
    14    6   78 1    
    15    7    8 1    
    16    8    9 1    
    17    8   79 1    
    18    8   80 1    
    19    9   10 ar   
    20    9   14 ar   
    21   10   11 ar   
    22   10   81 1    
    23   11   12 ar   
    24   11   71 1    
    25   12   13 ar   
    26   12   82 1    
    27   13   14 ar   
    28   13   15 1    
    29   14   83 1    
    30   15   16 1    
    31   15   84 1    
    32   15   85 1    
    33   16   17 1    
    34   17   18 1    
    35   17   86 1    
    36   17   87 1    
    37   18   19 1    
    38   18   37 1    
    39   18   88 1    
    40   19   20 am   BACKBONE|DICT|INTERRES
    41   19   89 1    
    42   20   21 2    
    43   20   22 1    
    44   22   23 1    
    45   22   24 1    
    46   22   90 1    
    47   23   91 1    
    48   23   92 1    
    49   23   93 1    
    50   24   25 am   BACKBONE|DICT|INTERRES
    51   24   94 1    
    52   25   26 2    
    53   25   27 1    
    54   27   28 1    
    55   27   29 1    
    56   27   95 1    
    57   28   96 1    
    58   28   97 1    
    59   28   98 1    
    60   29   30 am   BACKBONE|DICT|INTERRES
    61   29   99 1    
    62   30   31 2    
    63   30   32 1    
    64   32   33 1    
    65   32   34 1    
    66   32  100 1    
    67   33  101 1    
    68   33  102 1    
    69   33  103 1    
    70   34   35 am   BACKBONE|DICT|INTERRES
    71   34  104 1    
    72   35   36 2    
    73   37   38 2    
    74   37   39 am   BACKBONE|DICT|INTERRES
    75   39   40 1    
    76   39  105 1    
    77   40   41 1    
    78   40   42 1    
    79   40  106 1    
    80   41  107 1    
    81   41  108 1    
    82   41  109 1    
    83   42   43 2    
    84   42   44 am   BACKBONE|DICT|INTERRES
    85   44   45 1    
    86   44  110 1    
    87   45   46 1    
    88   45   47 1    
    89   45  111 1    
    90   46  112 1    
    91   46  113 1    
    92   46  114 1    
    93   47   48 2    
    94   47   49 am   BACKBONE|DICT|INTERRES
    95   49   50 1    
    96   49  115 1    
    97   50   51 1    
    98   50   52 1    
    99   50  116 1    
   100   51  117 1    
   101   51  118 1    
   102   51  119 1    
   103   52   53 2    
   104   52   54 am   BACKBONE|DICT|INTERRES
   105   54   55 1    
   106   54  120 1    
   107   55   56 1    
   108   55   57 1    
   109   55  121 1    
   110   56  122 1    
   111   56  123 1    
   112   56  124 1    
   113   57   58 2    
   114   57   59 am   BACKBONE|DICT|INTERRES
   115   59   60 1    
   116   59  125 1    
   117   60   61 1    
   118   60   62 1    
   119   60  126 1    
   120   61  127 1    
   121   61  128 1    
   122   61  129 1    
   123   62   63 2    
   124   62   64 am   BACKBONE|DICT|INTERRES
   125   64   65 1    
   126   64  130 1    
   127   65   66 1    
   128   65   69 1    
   129   65  131 1    
   130   66   67 am   BACKBONE|DICT|INTERRES
   131   66   68 2    
   132   67  132 1    
   133   67  133 1    
   134   69   70 1    
   135   69  134 1    
   136   69  135 1    
   137   70   71 1    
   138   71  136 1    
   139   71  137 1    
@<TRIPOS>SUBSTRUCTURE
     1 UNK         1 GROUP             0       ****    0 ROOT    
