@<TRIPOS>MOLECULE
3R136
137   139    1
SMALL
USER_CHARGES


@<TRIPOS>ATOM
      1 CA         35.2416   21.7387    0.2594 C.3       0 UNK        -0.1979 
      2 C          34.0484   22.5050    0.8113 C.2       0 UNK         0.4864 
      3 O          34.2035   23.6482    1.2393 O.2       0 UNK        -0.5359 
      4 N          32.8632   21.8806    0.8097 N.am      1 UNK        -0.4318 
      5 CA         31.5931   22.4692    1.2447 C.3       1 UNK         0.0824 
      6 C6         30.5251   21.3529    1.4695 C.3       12 UNK        -0.0944 
      7 S7         28.7502   21.8038    1.3717 S.3       12 UNK        -0.2672 
      8 C8         28.2365   21.8536    3.1165 C.3       12 UNK         0.0333 
      9 C9         28.4215   23.2422    3.7066 C.ar      12 UNK        -0.0807 
     10 C10        29.6756   23.6436    4.1684 C.ar      12 UNK        -0.0894 
     11 C11        29.8629   24.9243    4.6917 C.ar      12 UNK        -0.0804 
     12 C12        28.7757   25.8002    4.7763 C.ar      12 UNK        -0.0824 
     13 C13        27.5033   25.4025    4.3460 C.ar      12 UNK        -0.0762 
     14 C14        27.3378   24.1217    3.8044 C.ar      12 UNK        -0.0782 
     15 C15        26.3094   26.3386    4.5296 C.3       12 UNK         0.0230 
     16 S16        25.2416   26.4639    3.0521 S.3       12 UNK        -0.2608 
     17 C17        25.0104   28.2714    2.9137 C.3       12 UNK        -0.0989 
     18 CA         26.1178   28.8975    2.0316 C.3       5 UNK         0.0716 
     19 N          26.1153   28.3994    0.6485 N.am      5 UNK        -0.4135 
     20 C          25.2057   28.5859   -0.3192 C.2       4 UNK         0.5031 
     21 O          24.2341   29.3329   -0.2072 O.2       4 UNK        -0.5229 
     22 CA         25.4383   27.8586   -1.6585 C.3       4 UNK         0.0329 
     23 CB         26.0977   28.8096   -2.6710 C.3       4 UNK        -0.2001 
     24 N          26.2611   26.6538   -1.5247 N.am      4 UNK        -0.4303 
     25 C          25.8630   25.5273   -0.9172 C.2       3 UNK         0.5044 
     26 O          24.7061   25.3297   -0.5442 O.2       3 UNK        -0.5152 
     27 CA         26.9235   24.4365   -0.6693 C.3       3 UNK         0.0319 
     28 CB         26.7477   23.2841   -1.6718 C.3       3 UNK        -0.2001 
     29 N          28.3281   24.8705   -0.6908 N.am      3 UNK        -0.4354 
     30 C          28.8824   25.8307    0.0634 C.2       2 UNK         0.4964 
     31 O          28.2432   26.5953    0.7841 O.2       2 UNK        -0.5047 
     32 CA         30.4151   25.9260    0.0208 C.3       2 UNK         0.0288 
     33 CB         30.9405   27.2424    0.6243 C.3       2 UNK        -0.2113 
     34 N          30.9775   24.7992    0.7617 N.am      2 UNK        -0.4145 
     35 C          31.1643   23.5734    0.2551 C.2       1 UNK         0.5006 
     36 O          30.9886   23.2911   -0.9341 O.2       1 UNK        -0.5103 
     37 C          26.2155   30.4310    2.1908 C.2       5 UNK         0.5055 
     38 O          26.5652   30.8916    3.2771 O.2       5 UNK        -0.5220 
     39 N          26.0173   31.2036    1.1152 N.am      6 UNK        -0.4450 
     40 CA         26.3704   32.6250    1.0308 C.3       6 UNK         0.0367 
     41 CB         25.7919   33.2130   -0.2659 C.3       6 UNK        -0.1929 
     42 C          27.8936   32.8597    1.0974 C.2       6 UNK         0.5070 
     43 O          28.3258   33.9264    1.5326 O.2       6 UNK        -0.5237 
     44 N          28.6716   31.8487    0.6861 N.am      7 UNK        -0.4739 
     45 CA         30.1346   31.8187    0.7158 C.3       7 UNK         0.0276 
     46 CB         30.6441   31.3621   -0.6640 C.3       7 UNK        -0.1927 
     47 C          30.6757   30.9203    1.8458 C.2       7 UNK         0.5013 
     48 O          31.8301   30.4975    1.7707 O.2       7 UNK        -0.5193 
     49 N          29.8625   30.6486    2.8824 N.am      8 UNK        -0.4253 
     50 CA         30.1920   29.7774    4.0236 C.3       8 UNK         0.0242 
     51 CB         29.0057   29.7132    4.9971 C.3       8 UNK        -0.2000 
     52 C          31.4735   30.1518    4.7880 C.2       8 UNK         0.4948 
     53 O          32.0912   29.2709    5.3836 O.2       8 UNK        -0.5275 
     54 N          31.8943   31.4226    4.7145 N.am      9 UNK        -0.4246 
     55 CA         33.1738   31.9245    5.2281 C.3       9 UNK         0.0261 
     56 CB         33.2525   33.4399    4.9818 C.3       9 UNK        -0.1959 
     57 C          34.4175   31.2188    4.6456 C.2       9 UNK         0.5033 
     58 O          35.4760   31.2660    5.2736 O.2       9 UNK        -0.5390 
     59 N          34.2758   30.5622    3.4837 N.am      10 UNK        -0.4215 
     60 CA         35.3040   29.7202    2.8716 C.3       10 UNK         0.0240 
     61 CB         34.9245   29.4559    1.4048 C.3       10 UNK        -0.1982 
     62 C          35.5437   28.3850    3.6056 C.2       10 UNK         0.4970 
     63 O          36.5820   27.7686    3.3598 O.2       10 UNK        -0.4916 
     64 N          34.6084   27.9476    4.4614 N.am      11 UNK        -0.4279 
     65 CA         34.6555   26.6453    5.1475 C.3       11 UNK         0.1003 
     66 C          34.2222   26.6682    6.6386 C.2       11 UNK         0.5709 
     67 N          33.5133   27.6780    7.1232 N.am      11 UNK        -0.7358 
     68 O          34.5646   25.7543    7.3855 O.2       11 UNK        -0.4999 
     69 C69        33.9438   25.5271    4.3380 C.3       12 UNK        -0.0954 
     70 S70        32.2509   25.9395    3.7866 S.3       12 UNK        -0.2268 
     71 C71        31.2423   25.3418    5.1739 C.3       12 UNK         0.0203 
     72 H72        36.0140   21.6475    1.0230 H         1 UNK         0.0888 
     73 H73        34.9675   20.7354   -0.0671 H         1 UNK         0.0888 
     74 H74        35.6656   22.2691   -0.5931 H         1 UNK         0.0888 
     75 H75        32.8004   20.9528    0.4161 H         1 UNK         0.3017 
     76 H76        31.7781   22.9475    2.2081 H         1 UNK         0.0873 
     77 H77        30.6534   20.5797    0.7099 H         1 UNK         0.0745 
     78 H78        30.7215   20.8495    2.4171 H         1 UNK         0.0745 
     79 H79        27.1867   21.5620    3.1746 H         1 UNK         0.0705 
     80 H80        28.7855   21.1134    3.7002 H         1 UNK         0.0705 
     81 H81        30.5097   22.9583    4.1186 H         1 UNK         0.1334 
     82 H82        28.9205   26.7847    5.1975 H         1 UNK         0.1417 
     83 H83        26.3601   23.8066    3.4664 H         1 UNK         0.1562 
     84 H84        26.6582   27.3314    4.8145 H         1 UNK         0.0748 
     85 H85        25.7070   25.9786    5.3645 H         1 UNK         0.0748 
     86 H86        24.9998   28.7073    3.9147 H         1 UNK         0.0940 
     87 H87        24.0247   28.4701    2.4897 H         1 UNK         0.0940 
     88 H88        27.0702   28.5418    2.4287 H         1 UNK         0.0703 
     89 H89        26.8721   27.7414    0.4686 H         1 UNK         0.3081 
     90 H90        24.4610   27.5652   -2.0476 H         1 UNK         0.0719 
     91 H91        27.0866   29.1315   -2.3417 H         1 UNK         0.0809 
     92 H92        26.2061   28.3361   -3.6470 H         1 UNK         0.0809 
     93 H93        25.4938   29.7068   -2.8148 H         1 UNK         0.0809 
     94 H94        27.2252   26.7191   -1.8165 H         1 UNK         0.2990 
     95 H95        26.7352   24.0463    0.3332 H         1 UNK         0.0690 
     96 H96        27.4066   22.4481   -1.4359 H         1 UNK         0.0788 
     97 H97        26.9607   23.6032   -2.6928 H         1 UNK         0.0788 
     98 H98        25.7262   22.9014   -1.6549 H         1 UNK         0.0788 
     99 H99        28.9623   24.2786   -1.2135 H         1 UNK         0.2993 
    100 H100       30.7352   25.8824   -1.0226 H         1 UNK         0.0949 
    101 H101       30.5611   28.1027    0.0731 H         1 UNK         0.0767 
    102 H102       30.6343   27.3642    1.6636 H         1 UNK         0.0767 
    103 H103       32.0291   27.2900    0.5914 H         1 UNK         0.0767 
    104 H104       31.1381   24.9549    1.7484 H         1 UNK         0.3013 
    105 H105       25.6218   30.7667    0.2910 H         1 UNK         0.3121 
    106 H106       25.9166   33.1415    1.8794 H         1 UNK         0.0774 
    107 H107       26.2043   32.7261   -1.1506 H         1 UNK         0.0815 
    108 H108       26.0167   34.2776   -0.3449 H         1 UNK         0.0815 
    109 H109       24.7073   33.1089   -0.2996 H         1 UNK         0.0815 
    110 H110       28.2164   31.0124    0.3502 H         1 UNK         0.2987 
    111 H111       30.5264   32.8209    0.9024 H         1 UNK         0.0949 
    112 H112       30.3194   30.3486   -0.9005 H         1 UNK         0.0806 
    113 H113       30.2861   32.0212   -1.4549 H         1 UNK         0.0806 
    114 H114       31.7342   31.3743   -0.7074 H         1 UNK         0.0806 
    115 H115       28.9345   31.0509    2.8794 H         1 UNK         0.3010 
    116 H116       30.3552   28.7741    3.6249 H         1 UNK         0.0829 
    117 H117       28.1491   29.2197    4.5421 H         1 UNK         0.0813 
    118 H118       29.2589   29.1456    5.8939 H         1 UNK         0.0813 
    119 H119       28.6917   30.7068    5.3188 H         1 UNK         0.0813 
    120 H120       31.3229   32.0791    4.2033 H         1 UNK         0.3038 
    121 H121       33.1823   31.7495    6.3059 H         1 UNK         0.0769 
    122 H122       33.2207   33.6776    3.9177 H         1 UNK         0.0811 
    123 H123       34.1806   33.8526    5.3800 H         1 UNK         0.0811 
    124 H124       32.4319   33.9660    5.4700 H         1 UNK         0.0811 
    125 H125       33.3746   30.5813    3.0120 H         1 UNK         0.3204 
    126 H126       36.2457   30.2730    2.8850 H         1 UNK         0.0748 
    127 H127       35.7050   28.8911    0.8933 H         1 UNK         0.0771 
    128 H128       34.0014   28.8795    1.3271 H         1 UNK         0.0771 
    129 H129       34.7843   30.3869    0.8551 H         1 UNK         0.0771 
    130 H130       33.7755   28.5012    4.6288 H         1 UNK         0.2980 
    131 H131       35.7046   26.3500    5.2111 H         1 UNK         0.0545 
    132 H132       33.2654   27.6731    8.0989 H         1 UNK         0.3459 
    133 H133       33.1002   28.3730    6.5046 H         1 UNK         0.3459 
    134 H134       34.5237   25.3307    3.4353 H         1 UNK         0.0616 
    135 H135       33.9393   24.5813    4.8823 H         1 UNK         0.0616 
    136 H136       31.7297   24.4946    5.6583 H         1 UNK         0.0634 
    137 H137       31.1671   26.1285    5.9262 H         1 UNK         0.0634 
@<TRIPOS>BOND
     1    1    2 1    
     2    1   72 1    
     3    1   73 1    
     4    1   74 1    
     5    2    3 2    
     6    2    4 am   BACKBONE|DICT|INTERRES
     7    4    5 1    
     8    4   75 1    
     9    5    6 1    
    10    5   35 1    
    11    5   76 1    
    12    6    7 1    
    13    6   77 1    
    14    6   78 1    
    15    7    8 1    
    16    8    9 1    
    17    8   79 1    
    18    8   80 1    
    19    9   10 ar   
    20    9   14 ar   
    21   10   11 ar   
    22   10   81 1    
    23   11   12 ar   
    24   11   71 1    
    25   12   13 ar   
    26   12   82 1    
    27   13   14 ar   
    28   13   15 1    
    29   14   83 1    
    30   15   16 1    
    31   15   84 1    
    32   15   85 1    
    33   16   17 1    
    34   17   18 1    
    35   17   86 1    
    36   17   87 1    
    37   18   19 1    
    38   18   37 1    
    39   18   88 1    
    40   19   20 am   BACKBONE|DICT|INTERRES
    41   19   89 1    
    42   20   21 2    
    43   20   22 1    
    44   22   23 1    
    45   22   24 1    
    46   22   90 1    
    47   23   91 1    
    48   23   92 1    
    49   23   93 1    
    50   24   25 am   BACKBONE|DICT|INTERRES
    51   24   94 1    
    52   25   26 2    
    53   25   27 1    
    54   27   28 1    
    55   27   29 1    
    56   27   95 1    
    57   28   96 1    
    58   28   97 1    
    59   28   98 1    
    60   29   30 am   BACKBONE|DICT|INTERRES
    61   29   99 1    
    62   30   31 2    
    63   30   32 1    
    64   32   33 1    
    65   32   34 1    
    66   32  100 1    
    67   33  101 1    
    68   33  102 1    
    69   33  103 1    
    70   34   35 am   BACKBONE|DICT|INTERRES
    71   34  104 1    
    72   35   36 2    
    73   37   38 2    
    74   37   39 am   BACKBONE|DICT|INTERRES
    75   39   40 1    
    76   39  105 1    
    77   40   41 1    
    78   40   42 1    
    79   40  106 1    
    80   41  107 1    
    81   41  108 1    
    82   41  109 1    
    83   42   43 2    
    84   42   44 am   BACKBONE|DICT|INTERRES
    85   44   45 1    
    86   44  110 1    
    87   45   46 1    
    88   45   47 1    
    89   45  111 1    
    90   46  112 1    
    91   46  113 1    
    92   46  114 1    
    93   47   48 2    
    94   47   49 am   BACKBONE|DICT|INTERRES
    95   49   50 1    
    96   49  115 1    
    97   50   51 1    
    98   50   52 1    
    99   50  116 1    
   100   51  117 1    
   101   51  118 1    
   102   51  119 1    
   103   52   53 2    
   104   52   54 am   BACKBONE|DICT|INTERRES
   105   54   55 1    
   106   54  120 1    
   107   55   56 1    
   108   55   57 1    
   109   55  121 1    
   110   56  122 1    
   111   56  123 1    
   112   56  124 1    
   113   57   58 2    
   114   57   59 am   BACKBONE|DICT|INTERRES
   115   59   60 1    
   116   59  125 1    
   117   60   61 1    
   118   60   62 1    
   119   60  126 1    
   120   61  127 1    
   121   61  128 1    
   122   61  129 1    
   123   62   63 2    
   124   62   64 am   BACKBONE|DICT|INTERRES
   125   64   65 1    
   126   64  130 1    
   127   65   66 1    
   128   65   69 1    
   129   65  131 1    
   130   66   67 am   BACKBONE|DICT|INTERRES
   131   66   68 2    
   132   67  132 1    
   133   67  133 1    
   134   69   70 1    
   135   69  134 1    
   136   69  135 1    
   137   70   71 1    
   138   71  136 1    
   139   71  137 1    
@<TRIPOS>SUBSTRUCTURE
     1 UNK         1 GROUP             0       ****    0 ROOT    
