@<TRIPOS>MOLECULE
3R136
137   139    1
SMALL
USER_CHARGES


@<TRIPOS>ATOM
      1 CA         29.4417   22.5492   -3.0452 C.3       0 UNK        -0.1979 
      2 C          29.2923   22.0447   -1.6177 C.2       0 UNK         0.4864 
      3 O          28.6471   21.0198   -1.3972 O.2       0 UNK        -0.5359 
      4 N          29.8679   22.7756   -0.6519 N.am      1 UNK        -0.4318 
      5 CA         29.8960   22.4885    0.7948 C.3       1 UNK         0.0824 
      6 C6         30.5405   21.1203    1.1722 C.3       12 UNK        -0.0944 
      7 S7         32.0958   20.7374    0.2891 S.3       12 UNK        -0.2672 
      8 C8         33.3712   21.4108    1.4076 C.3       12 UNK         0.0333 
      9 C9         33.3707   22.9348    1.5008 C.ar      12 UNK        -0.0807 
     10 C10        33.5838   23.5497    2.7398 C.ar      12 UNK        -0.0894 
     11 C11        33.5967   24.9434    2.8499 C.ar      12 UNK        -0.0804 
     12 C12        33.3948   25.7227    1.7098 C.ar      12 UNK        -0.0824 
     13 C13        33.1310   25.1251    0.4745 C.ar      12 UNK        -0.0762 
     14 C14        33.1627   23.7326    0.3677 C.ar      12 UNK        -0.0782 
     15 C15        32.7566   25.9836   -0.7273 C.3       12 UNK         0.0230 
     16 S16        30.9547   25.9613   -1.0466 S.3       12 UNK        -0.2608 
     17 C17        30.2638   26.5721    0.5290 C.3       12 UNK        -0.0989 
     18 CA         29.4730   27.8959    0.3890 C.3       5 UNK         0.0716 
     19 N          28.1531   27.6987   -0.2027 N.am      5 UNK        -0.4135 
     20 C          27.5017   28.6108   -0.9358 C.2       4 UNK         0.5031 
     21 O          28.0024   29.6643   -1.3308 O.2       4 UNK        -0.5229 
     22 CA         26.0265   28.3108   -1.2675 C.3       4 UNK         0.0329 
     23 CB         25.9192   27.5642   -2.6069 C.3       4 UNK        -0.2001 
     24 N          25.3367   27.5400   -0.2273 N.am      4 UNK        -0.4303 
     25 C          25.1538   27.9454    1.0388 C.2       3 UNK         0.5044 
     26 O          25.4838   29.0543    1.4561 O.2       3 UNK        -0.5152 
     27 CA         24.5507   26.9239    2.0222 C.3       3 UNK         0.0319 
     28 CB         23.0254   27.0941    2.0987 C.3       3 UNK        -0.2001 
     29 N          24.8683   25.5191    1.7259 N.am      3 UNK        -0.4354 
     30 C          26.0974   25.0046    1.5701 C.2       2 UNK         0.4964 
     31 O          27.1282   25.6783    1.6491 O.2       2 UNK        -0.5047 
     32 CA         26.1812   23.5063    1.2281 C.3       2 UNK         0.0288 
     33 CB         25.1718   23.1064    0.1335 C.3       2 UNK        -0.2113 
     34 N          27.5224   23.1682    0.7537 N.am      2 UNK        -0.4145 
     35 C          28.5298   22.6909    1.4963 C.2       1 UNK         0.5006 
     36 O          28.4201   22.4278    2.6955 O.2       1 UNK        -0.5103 
     37 C          29.3075   28.5563    1.7685 C.2       5 UNK         0.5055 
     38 O          29.8426   29.6429    1.9910 O.2       5 UNK        -0.5220 
     39 N          28.5815   27.8778    2.6700 N.am      6 UNK        -0.4450 
     40 CA         28.5229   28.1492    4.1114 C.3       6 UNK         0.0367 
     41 CB         27.7480   27.0177    4.8052 C.3       6 UNK        -0.1929 
     42 C          27.9802   29.5304    4.5276 C.2       6 UNK         0.5070 
     43 O          28.0909   29.8880    5.7016 O.2       6 UNK        -0.5237 
     44 N          27.4145   30.2884    3.5821 N.am      7 UNK        -0.4739 
     45 CA         27.0529   31.6913    3.7578 C.3       7 UNK         0.0276 
     46 CB         26.1386   32.1253    2.6008 C.3       7 UNK        -0.1927 
     47 C          28.2647   32.6384    3.8624 C.2       7 UNK         0.5013 
     48 O          28.1177   33.6901    4.4884 O.2       7 UNK        -0.5193 
     49 N          29.4122   32.2995    3.2461 N.am      8 UNK        -0.4253 
     50 CA         30.5631   33.2131    3.1645 C.3       8 UNK         0.0242 
     51 CB         30.2748   34.3285    2.1359 C.3       8 UNK        -0.2000 
     52 C          31.9268   32.5727    2.8504 C.2       8 UNK         0.4948 
     53 O          32.9418   33.2227    3.1140 O.2       8 UNK        -0.5275 
     54 N          31.9788   31.3688    2.2635 N.am      9 UNK        -0.4246 
     55 CA         33.2124   30.7432    1.7699 C.3       9 UNK         0.0261 
     56 CB         32.8611   29.7107    0.6836 C.3       9 UNK        -0.1959 
     57 C          34.0507   30.1322    2.9072 C.2       9 UNK         0.5033 
     58 O          34.1595   28.9091    3.0055 O.2       9 UNK        -0.5390 
     59 N          34.6135   31.0008    3.7575 N.am      10 UNK        -0.4215 
     60 CA         35.4043   30.7299    4.9669 C.3       10 UNK         0.0240 
     61 CB         36.6659   29.8944    4.6679 C.3       10 UNK        -0.1982 
     62 C          34.5656   30.1184    6.1011 C.2       10 UNK         0.4970 
     63 O          34.5054   30.7020    7.1843 O.2       10 UNK        -0.4916 
     64 N          33.9109   28.9862    5.8247 N.am      11 UNK        -0.4279 
     65 CA         32.8203   28.4385    6.6373 C.3       11 UNK         0.1003 
     66 C          31.4822   29.1974    6.3957 C.2       11 UNK         0.5709 
     67 N          30.4477   28.9000    7.1691 N.am      11 UNK        -0.7358 
     68 O          31.3611   30.0406    5.5083 O.2       11 UNK        -0.4999 
     69 C69        32.7014   26.8982    6.4699 C.3       12 UNK        -0.0954 
     70 S70        32.2293   26.3347    4.7973 S.3       12 UNK        -0.2268 
     71 C71        33.7923   25.6160    4.2005 C.3       12 UNK         0.0203 
     72 H72        30.0080   23.4795   -3.0926 H         1 UNK         0.0888 
     73 H73        29.9597   21.8066   -3.6515 H         1 UNK         0.0888 
     74 H74        28.4612   22.7265   -3.4864 H         1 UNK         0.0888 
     75 H75        30.3552   23.6233   -0.9153 H         1 UNK         0.3017 
     76 H76        30.5305   23.2658    1.2212 H         1 UNK         0.0873 
     77 H77        30.7303   21.0743    2.2462 H         1 UNK         0.0745 
     78 H78        29.8431   20.3080    0.9598 H         1 UNK         0.0745 
     79 H79        34.3499   21.0900    1.0490 H         1 UNK         0.0705 
     80 H80        33.2422   20.9617    2.3937 H         1 UNK         0.0705 
     81 H81        33.7354   22.9431    3.6222 H         1 UNK         0.1334 
     82 H82        33.3854   26.7996    1.8020 H         1 UNK         0.1417 
     83 H83        32.9810   23.2704   -0.5929 H         1 UNK         0.1562 
     84 H84        33.2788   25.6199   -1.6134 H         1 UNK         0.0748 
     85 H85        33.0834   27.0139   -0.5833 H         1 UNK         0.0748 
     86 H86        31.0723   26.7105    1.2426 H         1 UNK         0.0940 
     87 H87        29.6430   25.7833    0.9551 H         1 UNK         0.0940 
     88 H88        30.0563   28.5784   -0.2334 H         1 UNK         0.0703 
     89 H89        27.6436   26.8853    0.1215 H         1 UNK         0.3081 
     90 H90        25.5113   29.2688   -1.3644 H         1 UNK         0.0719 
     91 H91        26.3966   26.5843   -2.5641 H         1 UNK         0.0809 
     92 H92        24.8790   27.4201   -2.8998 H         1 UNK         0.0809 
     93 H93        26.4033   28.1272   -3.4063 H         1 UNK         0.0809 
     94 H94        25.0179   26.6163   -0.4798 H         1 UNK         0.2990 
     95 H95        24.9624   27.1486    3.0066 H         1 UNK         0.0690 
     96 H96        22.5427   26.8460    1.1525 H         1 UNK         0.0788 
     97 H97        22.7592   28.1244    2.3401 H         1 UNK         0.0788 
     98 H98        22.5928   26.4613    2.8739 H         1 UNK         0.0788 
     99 H99        24.0784   24.8958    1.6380 H         1 UNK         0.2993 
    100 H100       25.9576   22.9440    2.1372 H         1 UNK         0.0949 
    101 H101       25.2800   23.7189   -0.7629 H         1 UNK         0.0767 
    102 H102       25.3060   22.0649   -0.1611 H         1 UNK         0.0767 
    103 H103       24.1418   23.2026    0.4785 H         1 UNK         0.0767 
    104 H104       27.7198   23.3744   -0.2137 H         1 UNK         0.3013 
    105 H105       28.1188   27.0235    2.3648 H         1 UNK         0.3121 
    106 H106       29.5530   28.1080    4.4675 H         1 UNK         0.0774 
    107 H107       27.7633   27.1413    5.8889 H         1 UNK         0.0815 
    108 H108       26.7046   26.9943    4.4949 H         1 UNK         0.0815 
    109 H109       28.1865   26.0436    4.5869 H         1 UNK         0.0815 
    110 H110       27.2940   29.8956    2.6571 H         1 UNK         0.2987 
    111 H111       26.4887   31.7820    4.6887 H         1 UNK         0.0949 
    112 H112       26.6266   32.0020    1.6330 H         1 UNK         0.0806 
    113 H113       25.2161   31.5447    2.5869 H         1 UNK         0.0806 
    114 H114       25.8570   33.1750    2.6950 H         1 UNK         0.0806 
    115 H115       29.4852   31.3919    2.7950 H         1 UNK         0.3010 
    116 H116       30.6876   33.6783    4.1450 H         1 UNK         0.0829 
    117 H117       31.1232   35.0077    2.0394 H         1 UNK         0.0813 
    118 H118       30.0734   33.9157    1.1468 H         1 UNK         0.0813 
    119 H119       29.4177   34.9360    2.4256 H         1 UNK         0.0813 
    120 H120       31.1294   30.8210    2.1367 H         1 UNK         0.3038 
    121 H121       33.8247   31.5122    1.2937 H         1 UNK         0.0769 
    122 H122       33.7659   29.2914    0.2422 H         1 UNK         0.0811 
    123 H123       32.2822   30.1595   -0.1236 H         1 UNK         0.0811 
    124 H124       32.2848   28.8815    1.0912 H         1 UNK         0.0811 
    125 H125       34.3517   31.9744    3.6183 H         1 UNK         0.3204 
    126 H126       35.7409   31.7068    5.3177 H         1 UNK         0.0748 
    127 H127       37.2850   29.7969    5.5605 H         1 UNK         0.0771 
    128 H128       36.4256   28.8854    4.3320 H         1 UNK         0.0771 
    129 H129       37.2781   30.3653    3.8987 H         1 UNK         0.0771 
    130 H130       33.9623   28.6482    4.8668 H         1 UNK         0.2980 
    131 H131       33.0748   28.6186    7.6835 H         1 UNK         0.0545 
    132 H132       29.5656   29.3565    6.9650 H         1 UNK         0.3459 
    133 H133       30.5107   28.2153    7.9050 H         1 UNK         0.3459 
    134 H134       33.6447   26.4300    6.7543 H         1 UNK         0.0616 
    135 H135       31.9649   26.5018    7.1704 H         1 UNK         0.0616 
    136 H136       34.1646   24.8986    4.9333 H         1 UNK         0.0634 
    137 H137       34.5462   26.4001    4.1173 H         1 UNK         0.0634 
@<TRIPOS>BOND
     1    1    2 1    
     2    1   72 1    
     3    1   73 1    
     4    1   74 1    
     5    2    3 2    
     6    2    4 am   BACKBONE|DICT|INTERRES
     7    4    5 1    
     8    4   75 1    
     9    5    6 1    
    10    5   35 1    
    11    5   76 1    
    12    6    7 1    
    13    6   77 1    
    14    6   78 1    
    15    7    8 1    
    16    8    9 1    
    17    8   79 1    
    18    8   80 1    
    19    9   10 ar   
    20    9   14 ar   
    21   10   11 ar   
    22   10   81 1    
    23   11   12 ar   
    24   11   71 1    
    25   12   13 ar   
    26   12   82 1    
    27   13   14 ar   
    28   13   15 1    
    29   14   83 1    
    30   15   16 1    
    31   15   84 1    
    32   15   85 1    
    33   16   17 1    
    34   17   18 1    
    35   17   86 1    
    36   17   87 1    
    37   18   19 1    
    38   18   37 1    
    39   18   88 1    
    40   19   20 am   BACKBONE|DICT|INTERRES
    41   19   89 1    
    42   20   21 2    
    43   20   22 1    
    44   22   23 1    
    45   22   24 1    
    46   22   90 1    
    47   23   91 1    
    48   23   92 1    
    49   23   93 1    
    50   24   25 am   BACKBONE|DICT|INTERRES
    51   24   94 1    
    52   25   26 2    
    53   25   27 1    
    54   27   28 1    
    55   27   29 1    
    56   27   95 1    
    57   28   96 1    
    58   28   97 1    
    59   28   98 1    
    60   29   30 am   BACKBONE|DICT|INTERRES
    61   29   99 1    
    62   30   31 2    
    63   30   32 1    
    64   32   33 1    
    65   32   34 1    
    66   32  100 1    
    67   33  101 1    
    68   33  102 1    
    69   33  103 1    
    70   34   35 am   BACKBONE|DICT|INTERRES
    71   34  104 1    
    72   35   36 2    
    73   37   38 2    
    74   37   39 am   BACKBONE|DICT|INTERRES
    75   39   40 1    
    76   39  105 1    
    77   40   41 1    
    78   40   42 1    
    79   40  106 1    
    80   41  107 1    
    81   41  108 1    
    82   41  109 1    
    83   42   43 2    
    84   42   44 am   BACKBONE|DICT|INTERRES
    85   44   45 1    
    86   44  110 1    
    87   45   46 1    
    88   45   47 1    
    89   45  111 1    
    90   46  112 1    
    91   46  113 1    
    92   46  114 1    
    93   47   48 2    
    94   47   49 am   BACKBONE|DICT|INTERRES
    95   49   50 1    
    96   49  115 1    
    97   50   51 1    
    98   50   52 1    
    99   50  116 1    
   100   51  117 1    
   101   51  118 1    
   102   51  119 1    
   103   52   53 2    
   104   52   54 am   BACKBONE|DICT|INTERRES
   105   54   55 1    
   106   54  120 1    
   107   55   56 1    
   108   55   57 1    
   109   55  121 1    
   110   56  122 1    
   111   56  123 1    
   112   56  124 1    
   113   57   58 2    
   114   57   59 am   BACKBONE|DICT|INTERRES
   115   59   60 1    
   116   59  125 1    
   117   60   61 1    
   118   60   62 1    
   119   60  126 1    
   120   61  127 1    
   121   61  128 1    
   122   61  129 1    
   123   62   63 2    
   124   62   64 am   BACKBONE|DICT|INTERRES
   125   64   65 1    
   126   64  130 1    
   127   65   66 1    
   128   65   69 1    
   129   65  131 1    
   130   66   67 am   BACKBONE|DICT|INTERRES
   131   66   68 2    
   132   67  132 1    
   133   67  133 1    
   134   69   70 1    
   135   69  134 1    
   136   69  135 1    
   137   70   71 1    
   138   71  136 1    
   139   71  137 1    
@<TRIPOS>SUBSTRUCTURE
     1 UNK         1 GROUP             0       ****    0 ROOT    
