@<TRIPOS>MOLECULE
3R136
137   139    1
SMALL
USER_CHARGES


@<TRIPOS>ATOM
      1 CA         32.4979   25.8877    0.1032 C.3       0 UNK        -0.1979 
      2 C          31.7547   24.7359    0.7625 C.2       0 UNK         0.4864 
      3 O          32.1246   23.5789    0.5613 O.2       0 UNK        -0.5359 
      4 N          30.6999   25.0506    1.5279 N.am      1 UNK        -0.4318 
      5 CA         29.7521   24.1057    2.1356 C.3       1 UNK         0.0824 
      6 C6         30.4105   23.1727    3.1930 C.3       12 UNK        -0.0944 
      7 S7         29.2397   22.6770    4.5060 S.3       12 UNK        -0.2672 
      8 C8         29.8130   23.6521    5.9342 C.3       12 UNK         0.0333 
      9 C9         29.6978   25.1493    5.6876 C.ar      12 UNK        -0.0807 
     10 C10        30.8461   25.9133    5.4603 C.ar      12 UNK        -0.0894 
     11 C11        30.7482   27.2841    5.2087 C.ar      12 UNK        -0.0804 
     12 C12        29.4901   27.8925    5.1969 C.ar      12 UNK        -0.0824 
     13 C13        28.3353   27.1429    5.4400 C.ar      12 UNK        -0.0762 
     14 C14        28.4452   25.7712    5.6879 C.ar      12 UNK        -0.0782 
     15 C15        26.9720   27.8210    5.4497 C.3       12 UNK         0.0230 
     16 S16        25.9429   27.3434    4.0254 S.3       12 UNK        -0.2608 
     17 C17        26.8705   28.0569    2.6246 C.3       12 UNK        -0.0989 
     18 CA         26.7968   27.1449    1.3741 C.3       5 UNK         0.0716 
     19 N          25.4375   26.9218    0.8632 N.am      5 UNK        -0.4135 
     20 C          24.5368   27.8258    0.4488 C.2       4 UNK         0.5031 
     21 O          24.7547   29.0393    0.4233 O.2       4 UNK        -0.5229 
     22 CA         23.1744   27.2785   -0.0336 C.3       4 UNK         0.0329 
     23 CB         22.4190   28.2677   -0.9476 C.3       4 UNK        -0.2001 
     24 N          23.2742   25.9500   -0.6554 N.am      4 UNK        -0.4303 
     25 C          23.9741   25.6290   -1.7533 C.2       3 UNK         0.5044 
     26 O          24.5523   26.4413   -2.4782 O.2       3 UNK        -0.5152 
     27 CA         24.1130   24.1255   -2.0509 C.3       3 UNK         0.0319 
     28 CB         23.5144   23.7732   -3.4226 C.3       3 UNK        -0.2001 
     29 N          25.5232   23.7288   -2.0153 N.am      3 UNK        -0.4354 
     30 C          26.3170   23.8326   -0.9395 C.2       2 UNK         0.4964 
     31 O          25.8986   24.1414    0.1803 O.2       2 UNK        -0.5047 
     32 CA         27.8188   23.5751   -1.1648 C.3       2 UNK         0.0288 
     33 CB         28.3386   24.2611   -2.4431 C.3       2 UNK        -0.2113 
     34 N          28.6055   24.0676   -0.0344 N.am      2 UNK        -0.4145 
     35 C          28.9303   23.3569    1.0548 C.2       1 UNK         0.5006 
     36 O          28.6259   22.1709    1.2033 O.2       1 UNK        -0.5103 
     37 C          27.7851   27.5947    0.2809 C.2       5 UNK         0.5055 
     38 O          28.8569   26.9972    0.1702 O.2       5 UNK        -0.5220 
     39 N          27.4079   28.6181   -0.4984 N.am      6 UNK        -0.4450 
     40 CA         28.1381   29.2467   -1.6101 C.3       6 UNK         0.0367 
     41 CB         28.4435   28.2244   -2.7239 C.3       6 UNK        -0.1929 
     42 C          29.3966   30.0396   -1.1981 C.2       6 UNK         0.5070 
     43 O          30.0980   30.5496   -2.0729 O.2       6 UNK        -0.5237 
     44 N          29.6473   30.1661    0.1078 N.am      7 UNK        -0.4739 
     45 CA         30.7427   30.8973    0.7363 C.3       7 UNK         0.0276 
     46 CB         32.0853   30.1810    0.4867 C.3       7 UNK        -0.1927 
     47 C          30.4282   31.0197    2.2345 C.2       7 UNK         0.5013 
     48 O          29.4550   30.4234    2.7064 O.2       7 UNK        -0.5193 
     49 N          31.2464   31.7935    2.9526 N.am      8 UNK        -0.4253 
     50 CA         31.1418   32.0232    4.3903 C.3       8 UNK         0.0242 
     51 CB         30.3564   33.3213    4.6459 C.3       8 UNK        -0.2000 
     52 C          32.5532   32.1117    4.9806 C.2       8 UNK         0.4948 
     53 O          33.4984   32.4278    4.2523 O.2       8 UNK        -0.5275 
     54 N          32.6616   31.8449    6.2897 N.am      9 UNK        -0.4246 
     55 CA         33.8434   31.9405    7.1638 C.3       9 UNK         0.0261 
     56 CB         34.3469   33.3949    7.2543 C.3       9 UNK        -0.1959 
     57 C          35.0085   30.9820    6.8445 C.2       9 UNK         0.5033 
     58 O          35.5795   30.4136    7.7763 O.2       9 UNK        -0.5390 
     59 N          35.3567   30.8409    5.5618 N.am      10 UNK        -0.4215 
     60 CA         36.4371   29.9999    5.0507 C.3       10 UNK         0.0240 
     61 CB         37.0298   30.6687    3.7921 C.3       10 UNK        -0.1982 
     62 C          35.9351   28.5620    4.8216 C.2       10 UNK         0.4970 
     63 O          35.7312   27.8335    5.7930 O.2       10 UNK        -0.4916 
     64 N          35.7590   28.1793    3.5496 N.am      11 UNK        -0.4279 
     65 CA         35.2904   26.8601    3.0825 C.3       11 UNK         0.1003 
     66 C          36.3101   25.6968    3.2795 C.2       11 UNK         0.5709 
     67 N          37.5783   25.9689    3.5639 N.am      11 UNK        -0.7358 
     68 O          35.9589   24.5278    3.1388 O.2       11 UNK        -0.4999 
     69 C69        33.8629   26.4900    3.5830 C.3       12 UNK        -0.0954 
     70 S70        32.6424   27.8127    3.2760 S.3       12 UNK        -0.2268 
     71 C71        31.9972   28.1104    4.9477 C.3       12 UNK         0.0203 
     72 H72        33.5130   25.9546    0.4916 H         1 UNK         0.0888 
     73 H73        32.5533   25.7305   -0.9736 H         1 UNK         0.0888 
     74 H74        31.9988   26.8403    0.2766 H         1 UNK         0.0888 
     75 H75        30.4401   26.0256    1.6103 H         1 UNK         0.3017 
     76 H76        29.0357   24.7425    2.6575 H         1 UNK         0.0873 
     77 H77        31.2594   23.6739    3.6596 H         1 UNK         0.0745 
     78 H78        30.8280   22.2782    2.7274 H         1 UNK         0.0745 
     79 H79        29.2164   23.3836    6.8071 H         1 UNK         0.0705 
     80 H80        30.8412   23.3731    6.1702 H         1 UNK         0.0705 
     81 H81        31.8169   25.4384    5.4650 H         1 UNK         0.1334 
     82 H82        29.4083   28.9518    4.9949 H         1 UNK         0.1417 
     83 H83        27.5539   25.1849    5.8673 H         1 UNK         0.1562 
     84 H84        27.0763   28.9072    5.4647 H         1 UNK         0.0748 
     85 H85        26.4472   27.5531    6.3677 H         1 UNK         0.0748 
     86 H86        27.9112   28.1946    2.9198 H         1 UNK         0.0940 
     87 H87        26.4861   29.0567    2.4170 H         1 UNK         0.0940 
     88 H88        27.1376   26.1562    1.6854 H         1 UNK         0.0703 
     89 H89        25.2002   25.9397    0.7668 H         1 UNK         0.3081 
     90 H90        22.5745   27.1456    0.8679 H         1 UNK         0.0719 
     91 H91        22.9931   28.5158   -1.8409 H         1 UNK         0.0809 
     92 H92        21.4598   27.8605   -1.2669 H         1 UNK         0.0809 
     93 H93        22.2144   29.2033   -0.4256 H         1 UNK         0.0809 
     94 H94        22.8511   25.1962   -0.1304 H         1 UNK         0.2990 
     95 H95        23.5814   23.5533   -1.2874 H         1 UNK         0.0690 
     96 H96        23.5781   22.7032   -3.6212 H         1 UNK         0.0788 
     97 H97        24.0235   24.2967   -4.2332 H         1 UNK         0.0788 
     98 H98        22.4600   24.0488   -3.4690 H         1 UNK         0.0788 
     99 H99        25.9441   23.4941   -2.9024 H         1 UNK         0.2993 
    100 H100       27.9603   22.4970   -1.2660 H         1 UNK         0.0949 
    101 H101       29.4224   24.1739   -2.5266 H         1 UNK         0.0767 
    102 H102       27.9166   23.8113   -3.3422 H         1 UNK         0.0767 
    103 H103       28.0886   25.3219   -2.4560 H         1 UNK         0.0767 
    104 H104       28.8567   25.0518   -0.0559 H         1 UNK         0.3013 
    105 H105       26.4921   29.0159   -0.2961 H         1 UNK         0.3121 
    106 H106       27.4505   29.9840   -2.0270 H         1 UNK         0.0774 
    107 H107       28.8239   28.7219   -3.6168 H         1 UNK         0.0815 
    108 H108       29.1984   27.5016   -2.4137 H         1 UNK         0.0815 
    109 H109       27.5469   27.6778   -3.0168 H         1 UNK         0.0815 
    110 H110       29.0090   29.7525    0.7766 H         1 UNK         0.2987 
    111 H111       30.7798   31.9048    0.3169 H         1 UNK         0.0949 
    112 H112       32.3580   30.2017   -0.5682 H         1 UNK         0.0806 
    113 H113       32.9034   30.6485    1.0357 H         1 UNK         0.0806 
    114 H114       32.0384   29.1380    0.7932 H         1 UNK         0.0806 
    115 H115       32.0691   32.1991    2.5240 H         1 UNK         0.3010 
    116 H116       30.6188   31.1907    4.8645 H         1 UNK         0.0829 
    117 H117       29.3480   33.2597    4.2361 H         1 UNK         0.0813 
    118 H118       30.2592   33.5202    5.7140 H         1 UNK         0.0813 
    119 H119       30.8482   34.1846    4.1957 H         1 UNK         0.0813 
    120 H120       31.8166   31.5710    6.7727 H         1 UNK         0.3038 
    121 H121       33.4869   31.6626    8.1572 H         1 UNK         0.0769 
    122 H122       35.1642   33.4802    7.9717 H         1 UNK         0.0811 
    123 H123       33.5560   34.0685    7.5841 H         1 UNK         0.0811 
    124 H124       34.7190   33.7589    6.2961 H         1 UNK         0.0811 
    125 H125       34.8065   31.3632    4.8808 H         1 UNK         0.3204 
    126 H126       37.2317   29.9426    5.7977 H         1 UNK         0.0748 
    127 H127       37.4625   31.6387    4.0384 H         1 UNK         0.0771 
    128 H128       37.8312   30.0668    3.3611 H         1 UNK         0.0771 
    129 H129       36.2784   30.8370    3.0191 H         1 UNK         0.0771 
    130 H130       35.9660   28.8456    2.8207 H         1 UNK         0.2980 
    131 H131       35.2208   26.9659    1.9998 H         1 UNK         0.0545 
    132 H132       38.2312   25.2095    3.6773 H         1 UNK         0.3459 
    133 H133       37.8872   26.9212    3.6706 H         1 UNK         0.3459 
    134 H134       33.5025   25.5913    3.0810 H         1 UNK         0.0616 
    135 H135       33.8920   26.2418    4.6441 H         1 UNK         0.0616 
    136 H136       31.7718   29.1710    5.0390 H         1 UNK         0.0634 
    137 H137       32.7573   27.9030    5.7020 H         1 UNK         0.0634 
@<TRIPOS>BOND
     1    1    2 1    
     2    1   72 1    
     3    1   73 1    
     4    1   74 1    
     5    2    3 2    
     6    2    4 am   BACKBONE|DICT|INTERRES
     7    4    5 1    
     8    4   75 1    
     9    5    6 1    
    10    5   35 1    
    11    5   76 1    
    12    6    7 1    
    13    6   77 1    
    14    6   78 1    
    15    7    8 1    
    16    8    9 1    
    17    8   79 1    
    18    8   80 1    
    19    9   10 ar   
    20    9   14 ar   
    21   10   11 ar   
    22   10   81 1    
    23   11   12 ar   
    24   11   71 1    
    25   12   13 ar   
    26   12   82 1    
    27   13   14 ar   
    28   13   15 1    
    29   14   83 1    
    30   15   16 1    
    31   15   84 1    
    32   15   85 1    
    33   16   17 1    
    34   17   18 1    
    35   17   86 1    
    36   17   87 1    
    37   18   19 1    
    38   18   37 1    
    39   18   88 1    
    40   19   20 am   BACKBONE|DICT|INTERRES
    41   19   89 1    
    42   20   21 2    
    43   20   22 1    
    44   22   23 1    
    45   22   24 1    
    46   22   90 1    
    47   23   91 1    
    48   23   92 1    
    49   23   93 1    
    50   24   25 am   BACKBONE|DICT|INTERRES
    51   24   94 1    
    52   25   26 2    
    53   25   27 1    
    54   27   28 1    
    55   27   29 1    
    56   27   95 1    
    57   28   96 1    
    58   28   97 1    
    59   28   98 1    
    60   29   30 am   BACKBONE|DICT|INTERRES
    61   29   99 1    
    62   30   31 2    
    63   30   32 1    
    64   32   33 1    
    65   32   34 1    
    66   32  100 1    
    67   33  101 1    
    68   33  102 1    
    69   33  103 1    
    70   34   35 am   BACKBONE|DICT|INTERRES
    71   34  104 1    
    72   35   36 2    
    73   37   38 2    
    74   37   39 am   BACKBONE|DICT|INTERRES
    75   39   40 1    
    76   39  105 1    
    77   40   41 1    
    78   40   42 1    
    79   40  106 1    
    80   41  107 1    
    81   41  108 1    
    82   41  109 1    
    83   42   43 2    
    84   42   44 am   BACKBONE|DICT|INTERRES
    85   44   45 1    
    86   44  110 1    
    87   45   46 1    
    88   45   47 1    
    89   45  111 1    
    90   46  112 1    
    91   46  113 1    
    92   46  114 1    
    93   47   48 2    
    94   47   49 am   BACKBONE|DICT|INTERRES
    95   49   50 1    
    96   49  115 1    
    97   50   51 1    
    98   50   52 1    
    99   50  116 1    
   100   51  117 1    
   101   51  118 1    
   102   51  119 1    
   103   52   53 2    
   104   52   54 am   BACKBONE|DICT|INTERRES
   105   54   55 1    
   106   54  120 1    
   107   55   56 1    
   108   55   57 1    
   109   55  121 1    
   110   56  122 1    
   111   56  123 1    
   112   56  124 1    
   113   57   58 2    
   114   57   59 am   BACKBONE|DICT|INTERRES
   115   59   60 1    
   116   59  125 1    
   117   60   61 1    
   118   60   62 1    
   119   60  126 1    
   120   61  127 1    
   121   61  128 1    
   122   61  129 1    
   123   62   63 2    
   124   62   64 am   BACKBONE|DICT|INTERRES
   125   64   65 1    
   126   64  130 1    
   127   65   66 1    
   128   65   69 1    
   129   65  131 1    
   130   66   67 am   BACKBONE|DICT|INTERRES
   131   66   68 2    
   132   67  132 1    
   133   67  133 1    
   134   69   70 1    
   135   69  134 1    
   136   69  135 1    
   137   70   71 1    
   138   71  136 1    
   139   71  137 1    
@<TRIPOS>SUBSTRUCTURE
     1 UNK         1 GROUP             0       ****    0 ROOT    
