@<TRIPOS>MOLECULE
3R136
137   139    1
SMALL
USER_CHARGES


@<TRIPOS>ATOM
      1 CA         29.8223   19.4909   -3.3672 C.3       0 UNK        -0.1979 
      2 C          30.0319   20.7206   -2.4958 C.2       0 UNK         0.4864 
      3 O          30.8621   20.6918   -1.5861 O.2       0 UNK        -0.5359 
      4 N          29.2879   21.7979   -2.7663 N.am      1 UNK        -0.4318 
      5 CA         29.3595   23.0767   -2.0640 C.3       1 UNK         0.0824 
      6 C6         28.5542   23.0547   -0.7376 C.3       12 UNK        -0.0944 
      7 S7         29.2454   24.1733    0.5249 S.3       12 UNK        -0.2672 
      8 C8         30.1978   22.9926    1.5269 C.3       12 UNK         0.0333 
      9 C9         30.6981   23.6241    2.8167 C.ar      12 UNK        -0.0807 
     10 C10        31.8105   24.4711    2.8003 C.ar      12 UNK        -0.0894 
     11 C11        32.3036   25.0181    3.9891 C.ar      12 UNK        -0.0804 
     12 C12        31.6786   24.7058    5.1990 C.ar      12 UNK        -0.0824 
     13 C13        30.5518   23.8806    5.2260 C.ar      12 UNK        -0.0762 
     14 C14        30.0646   23.3410    4.0316 C.ar      12 UNK        -0.0782 
     15 C15        29.8717   23.5755    6.5519 C.3       12 UNK         0.0230 
     16 S16        29.0559   25.0508    7.2402 S.3       12 UNK        -0.2608 
     17 C17        27.6291   25.2513    6.1187 C.3       12 UNK        -0.0989 
     18 CA         27.8558   26.2852    4.9864 C.3       5 UNK         0.0716 
     19 N          26.7433   26.2568    4.0323 N.am      5 UNK        -0.4135 
     20 C          26.6545   26.9946    2.9183 C.2       4 UNK         0.5031 
     21 O          27.5528   27.7414    2.5139 O.2       4 UNK        -0.5229 
     22 CA         25.3055   26.9263    2.1787 C.3       4 UNK         0.0329 
     23 CB         24.2290   27.7181    2.9420 C.3       4 UNK        -0.2001 
     24 N          25.4117   27.4639    0.8220 N.am      4 UNK        -0.4303 
     25 C          25.9022   26.7857   -0.2211 C.2       3 UNK         0.5044 
     26 O          26.1813   25.5865   -0.1812 O.2       3 UNK        -0.5152 
     27 CA         26.1334   27.5628   -1.5274 C.3       3 UNK         0.0319 
     28 CB         26.2339   29.0947   -1.3373 C.3       3 UNK        -0.2001 
     29 N          27.3473   27.0272   -2.1371 N.am      3 UNK        -0.4354 
     30 C          27.7537   27.1950   -3.4000 C.2       2 UNK         0.4964 
     31 O          27.1449   27.8662   -4.2339 O.2       2 UNK        -0.5047 
     32 CA         29.0666   26.5022   -3.8107 C.3       2 UNK         0.0288 
     33 CB         30.2250   27.5138   -3.8349 C.3       2 UNK        -0.2113 
     34 N          29.4263   25.3684   -2.9490 N.am      2 UNK        -0.4145 
     35 C          28.8580   24.1579   -3.0356 C.2       1 UNK         0.5006 
     36 O          27.9720   23.8739   -3.8479 O.2       1 UNK        -0.5103 
     37 C          28.0591   27.7176    5.5282 C.2       5 UNK         0.5055 
     38 O          27.1114   28.3036    6.0566 O.2       5 UNK        -0.5220 
     39 N          29.2729   28.2542    5.3370 N.am      6 UNK        -0.4450 
     40 CA         29.7021   29.6249    5.6499 C.3       6 UNK         0.0367 
     41 CB         29.6014   29.9203    7.1614 C.3       6 UNK        -0.1929 
     42 C          29.0540   30.7247    4.7807 C.2       6 UNK         0.5070 
     43 O          29.2280   31.9057    5.0852 O.2       6 UNK        -0.5237 
     44 N          28.3635   30.3392    3.6989 N.am      7 UNK        -0.4739 
     45 CA         27.9341   31.2319    2.6185 C.3       7 UNK         0.0276 
     46 CB         26.4346   31.0377    2.3465 C.3       7 UNK        -0.1927 
     47 C          28.7525   30.9598    1.3466 C.2       7 UNK         0.5013 
     48 O          29.0295   31.8967    0.5979 O.2       7 UNK        -0.5193 
     49 N          29.1377   29.6907    1.1352 N.am      8 UNK        -0.4253 
     50 CA         29.9822   29.2098    0.0374 C.3       8 UNK         0.0242 
     51 CB         30.1016   27.6816    0.1567 C.3       8 UNK        -0.2000 
     52 C          31.3848   29.8429   -0.0002 C.2       8 UNK         0.4948 
     53 O          31.9389   30.0270   -1.0845 O.2       8 UNK        -0.5275 
     54 N          31.9220   30.1612    1.1802 N.am      9 UNK        -0.4246 
     55 CA         33.2046   30.8069    1.4298 C.3       9 UNK         0.0261 
     56 CB         34.3623   29.8218    1.1635 C.3       9 UNK        -0.1959 
     57 C          33.1913   31.2854    2.8880 C.2       9 UNK         0.5033 
     58 O          32.2277   31.0140    3.6122 O.2       9 UNK        -0.5390 
     59 N          34.2667   31.9559    3.3193 N.am      10 UNK        -0.4215 
     60 CA         34.4894   32.3804    4.7064 C.3       10 UNK         0.0240 
     61 CB         35.5271   33.5189    4.7210 C.3       10 UNK        -0.1982 
     62 C          34.8969   31.1915    5.6033 C.2       10 UNK         0.4970 
     63 O          36.0154   31.1585    6.1196 O.2       10 UNK        -0.4916 
     64 N          33.9884   30.2188    5.7347 N.am      11 UNK        -0.4279 
     65 CA         34.1876   28.9458    6.4466 C.3       11 UNK         0.1003 
     66 C          34.2561   29.0636    7.9972 C.2       11 UNK         0.5709 
     67 N          33.8774   30.1856    8.5983 N.am      11 UNK        -0.7358 
     68 O          34.6664   28.1182    8.6662 O.2       11 UNK        -0.4999 
     69 C69        33.1429   27.8771    6.0236 C.3       12 UNK        -0.0954 
     70 S70        33.0127   27.6760    4.2104 S.3       12 UNK        -0.2268 
     71 C71        33.5100   25.9441    3.9652 C.3       12 UNK         0.0203 
     72 H72        30.7513   19.2251   -3.8708 H         1 UNK         0.0888 
     73 H73        29.5124   18.6452   -2.7539 H         1 UNK         0.0888 
     74 H74        29.0592   19.6557   -4.1277 H         1 UNK         0.0888 
     75 H75        28.6372   21.7991   -3.5431 H         1 UNK         0.3017 
     76 H76        30.4131   23.2756   -1.8531 H         1 UNK         0.0873 
     77 H77        27.5052   23.3097   -0.9008 H         1 UNK         0.0745 
     78 H78        28.5332   22.0466   -0.3216 H         1 UNK         0.0745 
     79 H79        31.0417   22.6230    0.9418 H         1 UNK         0.0705 
     80 H80        29.5784   22.1237    1.7547 H         1 UNK         0.0705 
     81 H81        32.2918   24.7005    1.8592 H         1 UNK         0.1334 
     82 H82        32.0542   25.1181    6.1244 H         1 UNK         0.1417 
     83 H83        29.1978   22.6943    4.0475 H         1 UNK         0.1562 
     84 H84        30.6207   23.2245    7.2633 H         1 UNK         0.0748 
     85 H85        29.1468   22.7664    6.4497 H         1 UNK         0.0748 
     86 H86        26.7629   25.5318    6.7214 H         1 UNK         0.0940 
     87 H87        27.3858   24.2778    5.6901 H         1 UNK         0.0940 
     88 H88        28.7482   25.9932    4.4286 H         1 UNK         0.0703 
     89 H89        25.9444   25.7035    4.3035 H         1 UNK         0.3081 
     90 H90        24.9949   25.8805    2.1235 H         1 UNK         0.0719 
     91 H91        24.5043   28.7651    3.0696 H         1 UNK         0.0809 
     92 H92        23.2707   27.6850    2.4232 H         1 UNK         0.0809 
     93 H93        24.0667   27.3053    3.9384 H         1 UNK         0.0809 
     94 H94        25.2335   28.4501    0.7107 H         1 UNK         0.2990 
     95 H95        25.2919   27.3418   -2.1867 H         1 UNK         0.0690 
     96 H96        26.4618   29.6028   -2.2740 H         1 UNK         0.0788 
     97 H97        27.0112   29.3614   -0.6232 H         1 UNK         0.0788 
     98 H98        25.2931   29.5148   -0.9802 H         1 UNK         0.0788 
     99 H99        27.8571   26.3860   -1.5432 H         1 UNK         0.2993 
    100 H100       28.9276   26.1300   -4.8285 H         1 UNK         0.0949 
    101 H101       30.3980   27.9627   -2.8574 H         1 UNK         0.0767 
    102 H102       31.1547   27.0475   -4.1617 H         1 UNK         0.0767 
    103 H103       30.0130   28.3286   -4.5288 H         1 UNK         0.0767 
    104 H104       30.1488   25.5243   -2.2608 H         1 UNK         0.3013 
    105 H105       29.9711   27.6842    4.8778 H         1 UNK         0.3121 
    106 H106       30.7591   29.6612    5.3892 H         1 UNK         0.0774 
    107 H107       30.0851   30.8664    7.4070 H         1 UNK         0.0815 
    108 H108       28.5655   29.9923    7.4931 H         1 UNK         0.0815 
    109 H109       30.0914   29.1459    7.7513 H         1 UNK         0.0815 
    110 H110       28.2204   29.3474    3.5429 H         1 UNK         0.2987 
    111 H111       28.0965   32.2757    2.8964 H         1 UNK         0.0949 
    112 H112       26.0834   31.7411    1.5904 H         1 UNK         0.0806 
    113 H113       26.2184   30.0353    1.9816 H         1 UNK         0.0806 
    114 H114       25.8431   31.2043    3.2468 H         1 UNK         0.0806 
    115 H115       28.7625   28.9721    1.7483 H         1 UNK         0.3010 
    116 H116       29.4826   29.4533   -0.9023 H         1 UNK         0.0829 
    117 H117       29.1248   27.2034    0.0965 H         1 UNK         0.0813 
    118 H118       30.7235   27.2661   -0.6358 H         1 UNK         0.0813 
    119 H119       30.5519   27.3858    1.1057 H         1 UNK         0.0813 
    120 H120       31.3808   30.0228    2.0262 H         1 UNK         0.3038 
    121 H121       33.2960   31.6790    0.7796 H         1 UNK         0.0769 
    122 H122       34.3019   28.9464    1.8105 H         1 UNK         0.0811 
    123 H123       35.3327   30.2882    1.3346 H         1 UNK         0.0811 
    124 H124       34.3591   29.4706    0.1318 H         1 UNK         0.0811 
    125 H125       35.0269   32.1179    2.6743 H         1 UNK         0.3204 
    126 H126       33.5544   32.7808    5.1050 H         1 UNK         0.0748 
    127 H127       35.6988   33.8778    5.7368 H         1 UNK         0.0771 
    128 H128       36.4896   33.1964    4.3216 H         1 UNK         0.0771 
    129 H129       35.1882   34.3715    4.1321 H         1 UNK         0.0771 
    130 H130       33.1247   30.3129    5.2096 H         1 UNK         0.2980 
    131 H131       35.1659   28.5714    6.1394 H         1 UNK         0.0545 
    132 H132       33.5445   30.9670    8.0577 H         1 UNK         0.3459 
    133 H133       33.9309   30.2501    9.6025 H         1 UNK         0.3459 
    134 H134       32.1564   28.1303    6.4116 H         1 UNK         0.0616 
    135 H135       33.4000   26.9186    6.4752 H         1 UNK         0.0616 
    136 H136       34.2375   25.6420    4.7197 H         1 UNK         0.0634 
    137 H137       34.0229   25.8696    3.0051 H         1 UNK         0.0634 
@<TRIPOS>BOND
     1    1    2 1    
     2    1   72 1    
     3    1   73 1    
     4    1   74 1    
     5    2    3 2    
     6    2    4 am   BACKBONE|DICT|INTERRES
     7    4    5 1    
     8    4   75 1    
     9    5    6 1    
    10    5   35 1    
    11    5   76 1    
    12    6    7 1    
    13    6   77 1    
    14    6   78 1    
    15    7    8 1    
    16    8    9 1    
    17    8   79 1    
    18    8   80 1    
    19    9   10 ar   
    20    9   14 ar   
    21   10   11 ar   
    22   10   81 1    
    23   11   12 ar   
    24   11   71 1    
    25   12   13 ar   
    26   12   82 1    
    27   13   14 ar   
    28   13   15 1    
    29   14   83 1    
    30   15   16 1    
    31   15   84 1    
    32   15   85 1    
    33   16   17 1    
    34   17   18 1    
    35   17   86 1    
    36   17   87 1    
    37   18   19 1    
    38   18   37 1    
    39   18   88 1    
    40   19   20 am   BACKBONE|DICT|INTERRES
    41   19   89 1    
    42   20   21 2    
    43   20   22 1    
    44   22   23 1    
    45   22   24 1    
    46   22   90 1    
    47   23   91 1    
    48   23   92 1    
    49   23   93 1    
    50   24   25 am   BACKBONE|DICT|INTERRES
    51   24   94 1    
    52   25   26 2    
    53   25   27 1    
    54   27   28 1    
    55   27   29 1    
    56   27   95 1    
    57   28   96 1    
    58   28   97 1    
    59   28   98 1    
    60   29   30 am   BACKBONE|DICT|INTERRES
    61   29   99 1    
    62   30   31 2    
    63   30   32 1    
    64   32   33 1    
    65   32   34 1    
    66   32  100 1    
    67   33  101 1    
    68   33  102 1    
    69   33  103 1    
    70   34   35 am   BACKBONE|DICT|INTERRES
    71   34  104 1    
    72   35   36 2    
    73   37   38 2    
    74   37   39 am   BACKBONE|DICT|INTERRES
    75   39   40 1    
    76   39  105 1    
    77   40   41 1    
    78   40   42 1    
    79   40  106 1    
    80   41  107 1    
    81   41  108 1    
    82   41  109 1    
    83   42   43 2    
    84   42   44 am   BACKBONE|DICT|INTERRES
    85   44   45 1    
    86   44  110 1    
    87   45   46 1    
    88   45   47 1    
    89   45  111 1    
    90   46  112 1    
    91   46  113 1    
    92   46  114 1    
    93   47   48 2    
    94   47   49 am   BACKBONE|DICT|INTERRES
    95   49   50 1    
    96   49  115 1    
    97   50   51 1    
    98   50   52 1    
    99   50  116 1    
   100   51  117 1    
   101   51  118 1    
   102   51  119 1    
   103   52   53 2    
   104   52   54 am   BACKBONE|DICT|INTERRES
   105   54   55 1    
   106   54  120 1    
   107   55   56 1    
   108   55   57 1    
   109   55  121 1    
   110   56  122 1    
   111   56  123 1    
   112   56  124 1    
   113   57   58 2    
   114   57   59 am   BACKBONE|DICT|INTERRES
   115   59   60 1    
   116   59  125 1    
   117   60   61 1    
   118   60   62 1    
   119   60  126 1    
   120   61  127 1    
   121   61  128 1    
   122   61  129 1    
   123   62   63 2    
   124   62   64 am   BACKBONE|DICT|INTERRES
   125   64   65 1    
   126   64  130 1    
   127   65   66 1    
   128   65   69 1    
   129   65  131 1    
   130   66   67 am   BACKBONE|DICT|INTERRES
   131   66   68 2    
   132   67  132 1    
   133   67  133 1    
   134   69   70 1    
   135   69  134 1    
   136   69  135 1    
   137   70   71 1    
   138   71  136 1    
   139   71  137 1    
@<TRIPOS>SUBSTRUCTURE
     1 UNK         1 GROUP             0       ****    0 ROOT    
