@<TRIPOS>MOLECULE
3R136
137   139    1
SMALL
USER_CHARGES


@<TRIPOS>ATOM
      1 CA         32.2300   23.2223   -2.1547 C.3       0 UNK        -0.1979 
      2 C          31.1422   24.1588   -1.6513 C.2       0 UNK         0.4864 
      3 O          31.0515   25.2950   -2.1149 O.2       0 UNK        -0.5359 
      4 N          30.3162   23.6908   -0.7049 N.am      1 UNK        -0.4318 
      5 CA         29.2382   24.4634   -0.0698 C.3       1 UNK         0.0824 
      6 C6         28.7400   23.8103    1.2438 C.3       12 UNK        -0.0944 
      7 S7         30.0900   23.3990    2.3986 S.3       12 UNK        -0.2672 
      8 C8         29.2990   23.6626    4.0201 C.3       12 UNK         0.0333 
      9 C9         29.4961   25.0767    4.5530 C.ar      12 UNK        -0.0807 
     10 C10        30.7868   25.5879    4.7164 C.ar      12 UNK        -0.0894 
     11 C11        30.9892   26.8598    5.2565 C.ar      12 UNK        -0.0804 
     12 C12        29.8847   27.6237    5.6458 C.ar      12 UNK        -0.0824 
     13 C13        28.5859   27.1196    5.5081 C.ar      12 UNK        -0.0762 
     14 C14        28.3991   25.8475    4.9521 C.ar      12 UNK        -0.0782 
     15 C15        27.4002   27.9255    6.0341 C.3       12 UNK         0.0230 
     16 S16        26.0213   28.0763    4.8500 S.3       12 UNK        -0.2608 
     17 C17        26.7934   29.0340    3.5061 C.3       12 UNK        -0.0989 
     18 CA         27.0505   28.1874    2.2292 C.3       5 UNK         0.0716 
     19 N          25.8173   27.7294    1.5901 N.am      5 UNK        -0.4135 
     20 C          25.3041   26.4989    1.6936 C.2       4 UNK         0.5031 
     21 O          25.7868   25.6082    2.3958 O.2       4 UNK        -0.5229 
     22 CA         24.0577   26.1818    0.8547 C.3       4 UNK         0.0329 
     23 CB         23.6400   27.2909   -0.1353 C.3       4 UNK        -0.2001 
     24 N          24.3404   24.9558    0.1207 N.am      4 UNK        -0.4303 
     25 C          23.4741   23.9727   -0.1452 C.2       3 UNK         0.5044 
     26 O          22.2863   24.0046    0.1823 O.2       3 UNK        -0.5152 
     27 CA         24.0322   22.7340   -0.8820 C.3       3 UNK         0.0319 
     28 CB         22.9808   22.0596   -1.7897 C.3       3 UNK        -0.2001 
     29 N          25.2807   22.9895   -1.6179 N.am      3 UNK        -0.4354 
     30 C          25.4595   23.8346   -2.6465 C.2       2 UNK         0.4964 
     31 O          24.5512   24.4809   -3.1711 O.2       2 UNK        -0.5047 
     32 CA         26.9075   23.9951   -3.1525 C.3       2 UNK         0.0288 
     33 CB         27.1011   25.2756   -3.9918 C.3       2 UNK        -0.2113 
     34 N          27.9171   23.9234   -2.0846 N.am      2 UNK        -0.4145 
     35 C          28.0448   24.7278   -1.0147 C.2       1 UNK         0.5006 
     36 O          27.2676   25.6461   -0.7455 O.2       1 UNK        -0.5103 
     37 C          27.8918   28.9438    1.1861 C.2       5 UNK         0.5055 
     38 O          28.3725   30.0412    1.4669 O.2       5 UNK        -0.5220 
     39 N          28.0899   28.3591   -0.0062 N.am      6 UNK        -0.4450 
     40 CA         28.9518   28.9423   -1.0484 C.3       6 UNK         0.0367 
     41 CB         28.7407   28.2035   -2.3775 C.3       6 UNK        -0.1929 
     42 C          30.4472   28.9701   -0.6671 C.2       6 UNK         0.5070 
     43 O          31.2085   29.7416   -1.2502 O.2       6 UNK        -0.5237 
     44 N          30.8300   28.1553    0.3242 N.am      7 UNK        -0.4739 
     45 CA         32.1716   28.0741    0.8985 C.3       7 UNK         0.0276 
     46 CB         32.4314   26.6147    1.3147 C.3       7 UNK        -0.1927 
     47 C          32.3847   29.0254    2.0925 C.2       7 UNK         0.5013 
     48 O          33.4428   28.9359    2.7149 O.2       7 UNK        -0.5193 
     49 N          31.4067   29.8966    2.4090 N.am      8 UNK        -0.4253 
     50 CA         31.3364   30.7650    3.6002 C.3       8 UNK         0.0242 
     51 CB         30.2098   31.7987    3.4386 C.3       8 UNK        -0.2000 
     52 C          32.6338   31.4818    4.0100 C.2       8 UNK         0.4948 
     53 O          32.9117   31.5726    5.2055 O.2       8 UNK        -0.5275 
     54 N          33.4225   31.9318    3.0242 N.am      9 UNK        -0.4246 
     55 CA         34.7311   32.5671    3.2101 C.3       9 UNK         0.0261 
     56 CB         35.2842   32.9936    1.8409 C.3       9 UNK        -0.1959 
     57 C          35.7632   31.7002    3.9592 C.2       9 UNK         0.5033 
     58 O          36.6350   32.2586    4.6265 O.2       9 UNK        -0.5390 
     59 N          35.6423   30.3673    3.8686 N.am      10 UNK        -0.4215 
     60 CA         36.4802   29.4129    4.5992 C.3       10 UNK         0.0240 
     61 CB         36.4276   28.0490    3.8901 C.3       10 UNK        -0.1982 
     62 C          36.0808   29.2609    6.0792 C.2       10 UNK         0.4970 
     63 O          36.8880   28.7505    6.8572 O.2       10 UNK        -0.4916 
     64 N          34.8627   29.6849    6.4404 N.am      11 UNK        -0.4279 
     65 CA         34.2928   29.5881    7.7938 C.3       11 UNK         0.1003 
     66 C          34.2631   30.9520    8.5425 C.2       11 UNK         0.5709 
     67 N          34.7933   32.0347    7.9846 N.am      11 UNK        -0.7358 
     68 O          33.7741   31.0270    9.6676 O.2       11 UNK        -0.4999 
     69 C69        32.8979   28.9034    7.7706 C.3       12 UNK        -0.0954 
     70 S70        32.9867   27.1890    7.1451 S.3       12 UNK        -0.2268 
     71 C71        32.4054   27.3872    5.4333 C.3       12 UNK         0.0203 
     72 H72        32.1948   22.2520   -1.6596 H         1 UNK         0.0888 
     73 H73        33.2118   23.6593   -1.9746 H         1 UNK         0.0888 
     74 H74        32.1198   23.0612   -3.2267 H         1 UNK         0.0888 
     75 H75        30.4586   22.7610   -0.3353 H         1 UNK         0.3017 
     76 H76        29.6522   25.4404    0.1854 H         1 UNK         0.0873 
     77 H77        28.1846   22.8929    1.0388 H         1 UNK         0.0745 
     78 H78        28.0465   24.4833    1.7500 H         1 UNK         0.0745 
     79 H79        28.2401   23.4061    3.9580 H         1 UNK         0.0705 
     80 H80        29.7385   22.9648    4.7340 H         1 UNK         0.0705 
     81 H81        31.6383   24.9855    4.4301 H         1 UNK         0.1334 
     82 H82        30.0416   28.5974    6.0886 H         1 UNK         0.1417 
     83 H83        27.3972   25.4512    4.8510 H         1 UNK         0.1562 
     84 H84        27.7123   28.9271    6.3346 H         1 UNK         0.0748 
     85 H85        27.0281   27.4398    6.9370 H         1 UNK         0.0748 
     86 H86        27.7270   29.4550    3.8835 H         1 UNK         0.0940 
     87 H87        26.1519   29.8866    3.2765 H         1 UNK         0.0940 
     88 H88        27.6582   27.3255    2.5133 H         1 UNK         0.0703 
     89 H89        25.3680   28.3911    0.9734 H         1 UNK         0.3081 
     90 H90        23.2412   26.0113    1.5594 H         1 UNK         0.0719 
     91 H91        24.4287   27.5103   -0.8569 H         1 UNK         0.0809 
     92 H92        22.7572   26.9924   -0.7012 H         1 UNK         0.0809 
     93 H93        23.3826   28.2152    0.3832 H         1 UNK         0.0809 
     94 H94        25.3069   24.8471   -0.1638 H         1 UNK         0.2990 
     95 H95        24.2901   22.0198   -0.0987 H         1 UNK         0.0690 
     96 H96        23.3918   21.1830   -2.2903 H         1 UNK         0.0788 
     97 H97        22.6088   22.7407   -2.5556 H         1 UNK         0.0788 
     98 H98        22.1198   21.7246   -1.2099 H         1 UNK         0.0788 
     99 H99        26.0950   22.5033   -1.2692 H         1 UNK         0.2993 
    100 H100       27.0927   23.1423   -3.8074 H         1 UNK         0.0949 
    101 H101       26.4918   25.2464   -4.8960 H         1 UNK         0.0767 
    102 H102       26.8089   26.1653   -3.4345 H         1 UNK         0.0767 
    103 H103       28.1388   25.3972   -4.3031 H         1 UNK         0.0767 
    104 H104       28.6119   23.1980   -2.1948 H         1 UNK         0.3013 
    105 H105       27.6695   27.4536   -0.2053 H         1 UNK         0.3121 
    106 H106       28.6418   29.9795   -1.1941 H         1 UNK         0.0774 
    107 H107       27.6944   28.2283   -2.6804 H         1 UNK         0.0815 
    108 H108       29.0554   27.1623   -2.3172 H         1 UNK         0.0815 
    109 H109       29.3196   28.6679   -3.1768 H         1 UNK         0.0815 
    110 H110       30.1259   27.5728    0.7499 H         1 UNK         0.2987 
    111 H111       32.9085   28.3468    0.1400 H         1 UNK         0.0949 
    112 H112       31.7205   26.2768    2.0688 H         1 UNK         0.0806 
    113 H113       32.3584   25.9418    0.4611 H         1 UNK         0.0806 
    114 H114       33.4321   26.4918    1.7315 H         1 UNK         0.0806 
    115 H115       30.5777   29.8970    1.8270 H         1 UNK         0.3010 
    116 H116       31.0641   30.1214    4.4364 H         1 UNK         0.0829 
    117 H117       29.2296   31.3280    3.4817 H         1 UNK         0.0813 
    118 H118       30.2306   32.5391    4.2401 H         1 UNK         0.0813 
    119 H119       30.2861   32.3378    2.4938 H         1 UNK         0.0813 
    120 H120       33.1158   31.7913    2.0725 H         1 UNK         0.3038 
    121 H121       34.5712   33.4657    3.8097 H         1 UNK         0.0769 
    122 H122       35.4338   32.1374    1.1818 H         1 UNK         0.0811 
    123 H123       36.2476   33.4946    1.9478 H         1 UNK         0.0811 
    124 H124       34.6131   33.6917    1.3401 H         1 UNK         0.0811 
    125 H125       34.8710   29.9710    3.3326 H         1 UNK         0.3204 
    126 H126       37.5129   29.7673    4.5730 H         1 UNK         0.0748 
    127 H127       36.7207   28.1326    2.8435 H         1 UNK         0.0771 
    128 H128       37.1071   27.3378    4.3616 H         1 UNK         0.0771 
    129 H129       35.4282   27.6139    3.9249 H         1 UNK         0.0771 
    130 H130       34.2776   30.1616    5.7635 H         1 UNK         0.2980 
    131 H131       34.9396   28.9589    8.4075 H         1 UNK         0.0545 
    132 H132       34.7726   32.9084    8.4859 H         1 UNK         0.3459 
    133 H133       35.1936   31.9900    7.0608 H         1 UNK         0.3459 
    134 H134       32.4812   28.8505    8.7778 H         1 UNK         0.0616 
    135 H135       32.1884   29.4870    7.1818 H         1 UNK         0.0616 
    136 H136       33.0907   26.8562    4.7710 H         1 UNK         0.0634 
    137 H137       32.4611   28.4328    5.1376 H         1 UNK         0.0634 
@<TRIPOS>BOND
     1    1    2 1    
     2    1   72 1    
     3    1   73 1    
     4    1   74 1    
     5    2    3 2    
     6    2    4 am   BACKBONE|DICT|INTERRES
     7    4    5 1    
     8    4   75 1    
     9    5    6 1    
    10    5   35 1    
    11    5   76 1    
    12    6    7 1    
    13    6   77 1    
    14    6   78 1    
    15    7    8 1    
    16    8    9 1    
    17    8   79 1    
    18    8   80 1    
    19    9   10 ar   
    20    9   14 ar   
    21   10   11 ar   
    22   10   81 1    
    23   11   12 ar   
    24   11   71 1    
    25   12   13 ar   
    26   12   82 1    
    27   13   14 ar   
    28   13   15 1    
    29   14   83 1    
    30   15   16 1    
    31   15   84 1    
    32   15   85 1    
    33   16   17 1    
    34   17   18 1    
    35   17   86 1    
    36   17   87 1    
    37   18   19 1    
    38   18   37 1    
    39   18   88 1    
    40   19   20 am   BACKBONE|DICT|INTERRES
    41   19   89 1    
    42   20   21 2    
    43   20   22 1    
    44   22   23 1    
    45   22   24 1    
    46   22   90 1    
    47   23   91 1    
    48   23   92 1    
    49   23   93 1    
    50   24   25 am   BACKBONE|DICT|INTERRES
    51   24   94 1    
    52   25   26 2    
    53   25   27 1    
    54   27   28 1    
    55   27   29 1    
    56   27   95 1    
    57   28   96 1    
    58   28   97 1    
    59   28   98 1    
    60   29   30 am   BACKBONE|DICT|INTERRES
    61   29   99 1    
    62   30   31 2    
    63   30   32 1    
    64   32   33 1    
    65   32   34 1    
    66   32  100 1    
    67   33  101 1    
    68   33  102 1    
    69   33  103 1    
    70   34   35 am   BACKBONE|DICT|INTERRES
    71   34  104 1    
    72   35   36 2    
    73   37   38 2    
    74   37   39 am   BACKBONE|DICT|INTERRES
    75   39   40 1    
    76   39  105 1    
    77   40   41 1    
    78   40   42 1    
    79   40  106 1    
    80   41  107 1    
    81   41  108 1    
    82   41  109 1    
    83   42   43 2    
    84   42   44 am   BACKBONE|DICT|INTERRES
    85   44   45 1    
    86   44  110 1    
    87   45   46 1    
    88   45   47 1    
    89   45  111 1    
    90   46  112 1    
    91   46  113 1    
    92   46  114 1    
    93   47   48 2    
    94   47   49 am   BACKBONE|DICT|INTERRES
    95   49   50 1    
    96   49  115 1    
    97   50   51 1    
    98   50   52 1    
    99   50  116 1    
   100   51  117 1    
   101   51  118 1    
   102   51  119 1    
   103   52   53 2    
   104   52   54 am   BACKBONE|DICT|INTERRES
   105   54   55 1    
   106   54  120 1    
   107   55   56 1    
   108   55   57 1    
   109   55  121 1    
   110   56  122 1    
   111   56  123 1    
   112   56  124 1    
   113   57   58 2    
   114   57   59 am   BACKBONE|DICT|INTERRES
   115   59   60 1    
   116   59  125 1    
   117   60   61 1    
   118   60   62 1    
   119   60  126 1    
   120   61  127 1    
   121   61  128 1    
   122   61  129 1    
   123   62   63 2    
   124   62   64 am   BACKBONE|DICT|INTERRES
   125   64   65 1    
   126   64  130 1    
   127   65   66 1    
   128   65   69 1    
   129   65  131 1    
   130   66   67 am   BACKBONE|DICT|INTERRES
   131   66   68 2    
   132   67  132 1    
   133   67  133 1    
   134   69   70 1    
   135   69  134 1    
   136   69  135 1    
   137   70   71 1    
   138   71  136 1    
   139   71  137 1    
@<TRIPOS>SUBSTRUCTURE
     1 UNK         1 GROUP             0       ****    0 ROOT    
