@<TRIPOS>MOLECULE
3R136
137   139    1
SMALL
USER_CHARGES


@<TRIPOS>ATOM
      1 CA         26.9900   25.5516    5.1579 C.3       0 UNK        -0.1979 
      2 C          27.0314   24.1273    4.6267 C.2       0 UNK         0.4864 
      3 O          26.0162   23.4313    4.6689 O.2       0 UNK        -0.5359 
      4 N          28.1967   23.6872    4.1286 N.am      1 UNK        -0.4318 
      5 CA         28.4073   22.3500    3.5548 C.3       1 UNK         0.0824 
      6 C6         29.9137   21.9923    3.4447 C.3       12 UNK        -0.0944 
      7 S7         30.8483   22.9904    2.2317 S.3       12 UNK        -0.2672 
      8 C8         31.8400   24.0726    3.3030 C.3       12 UNK         0.0333 
      9 C9         32.6162   25.0754    2.4641 C.ar      12 UNK        -0.0807 
     10 C10        33.9840   24.9015    2.2283 C.ar      12 UNK        -0.0894 
     11 C11        34.6880   25.8125    1.4332 C.ar      12 UNK        -0.0804 
     12 C12        34.0139   26.9016    0.8720 C.ar      12 UNK        -0.0824 
     13 C13        32.6468   27.0827    1.0988 C.ar      12 UNK        -0.0762 
     14 C14        31.9546   26.1686    1.8978 C.ar      12 UNK        -0.0782 
     15 C15        31.9148   28.2695    0.4934 C.3       12 UNK         0.0230 
     16 S16        30.7878   27.7582   -0.8433 S.3       12 UNK        -0.2608 
     17 C17        29.9810   29.3521   -1.2352 C.3       12 UNK        -0.0989 
     18 CA         28.4754   29.4241   -0.8525 C.3       5 UNK         0.0716 
     19 N          27.6609   28.4230   -1.5449 N.am      5 UNK        -0.4135 
     20 C          27.1783   28.5785   -2.7840 C.2       4 UNK         0.5031 
     21 O          27.3682   29.5842   -3.4703 O.2       4 UNK        -0.5229 
     22 CA         26.3392   27.4305   -3.3750 C.3       4 UNK         0.0329 
     23 CB         27.2247   26.5176   -4.2391 C.3       4 UNK        -0.2001 
     24 N          25.6248   26.6096   -2.3930 N.am      4 UNK        -0.4303 
     25 C          24.7086   27.0428   -1.5144 C.2       3 UNK         0.5044 
     26 O          24.3903   28.2240   -1.3773 O.2       3 UNK        -0.5152 
     27 CA         24.0359   25.9786   -0.6276 C.3       3 UNK         0.0319 
     28 CB         22.6520   25.6149   -1.1892 C.3       3 UNK        -0.2001 
     29 N          24.8232   24.7516   -0.4586 N.am      3 UNK        -0.4354 
     30 C          25.9979   24.6786    0.1804 C.2       2 UNK         0.4964 
     31 O          26.5801   25.6505    0.6703 O.2       2 UNK        -0.5047 
     32 CA         26.6478   23.2946    0.2512 C.3       2 UNK         0.0288 
     33 CB         27.5719   23.0574   -0.9565 C.3       2 UNK        -0.2113 
     34 N          27.4187   23.2334    1.4842 N.am      2 UNK        -0.4145 
     35 C          27.6546   22.1401    2.2194 C.2       1 UNK         0.5006 
     36 O          27.2958   21.0059    1.8959 O.2       1 UNK        -0.5103 
     37 C          28.2072   29.4294    0.6644 C.2       5 UNK         0.5055 
     38 O          29.0835   29.8361    1.4249 O.2       5 UNK        -0.5220 
     39 N          27.0046   29.0134    1.0954 N.am      6 UNK        -0.4450 
     40 CA         26.6226   28.8442    2.5069 C.3       6 UNK         0.0367 
     41 CB         25.1712   28.3470    2.5917 C.3       6 UNK        -0.1929 
     42 C          26.8155   30.0860    3.4002 C.2       6 UNK         0.5070 
     43 O          27.1068   29.9374    4.5867 O.2       6 UNK        -0.5237 
     44 N          26.6870   31.2830    2.8126 N.am      7 UNK        -0.4739 
     45 CA         26.9276   32.5708    3.4707 C.3       7 UNK         0.0276 
     46 CB         26.3036   33.6861    2.6152 C.3       7 UNK        -0.1927 
     47 C          28.4156   32.8745    3.7452 C.2       7 UNK         0.5013 
     48 O          28.6978   33.7811    4.5298 O.2       7 UNK        -0.5193 
     49 N          29.3336   32.1411    3.1016 N.am      8 UNK        -0.4253 
     50 CA         30.7852   32.3017    3.2088 C.3       8 UNK         0.0242 
     51 CB         31.3073   32.9839    1.9295 C.3       8 UNK        -0.2000 
     52 C          31.4666   30.9464    3.4716 C.2       8 UNK         0.4948 
     53 O          32.5930   30.7299    3.0198 O.2       8 UNK        -0.5275 
     54 N          30.7649   30.0478    4.1761 N.am      9 UNK        -0.4246 
     55 CA         31.2266   28.7028    4.5188 C.3       9 UNK         0.0261 
     56 CB         30.0184   27.8660    4.9681 C.3       9 UNK        -0.1959 
     57 C          32.3388   28.6943    5.5821 C.2       9 UNK         0.5033 
     58 O          32.5617   29.7046    6.2541 O.2       9 UNK        -0.5390 
     59 N          32.9866   27.5268    5.7192 N.am      10 UNK        -0.4215 
     60 CA         34.1385   27.2344    6.5809 C.3       10 UNK         0.0240 
     61 CB         33.8098   27.4483    8.0751 C.3       10 UNK        -0.1982 
     62 C          35.3844   28.0037    6.1102 C.2       10 UNK         0.4970 
     63 O          35.8602   28.9101    6.7962 O.2       10 UNK        -0.4916 
     64 N          35.8701   27.6230    4.9224 N.am      11 UNK        -0.4279 
     65 CA         37.0514   28.1895    4.2529 C.3       11 UNK         0.1003 
     66 C          38.4122   28.0023    4.9908 C.2       11 UNK         0.5709 
     67 N          38.5250   27.1127    5.9704 N.am      11 UNK        -0.7358 
     68 O          39.3812   28.6871    4.6709 O.2       11 UNK        -0.4999 
     69 C69        37.1316   27.7205    2.7747 C.3       12 UNK        -0.0954 
     70 S70        37.2192   25.9016    2.5974 S.3       12 UNK        -0.2268 
     71 C71        36.1673   25.5965    1.1439 C.3       12 UNK         0.0203 
     72 H72        27.9867   25.9258    5.3838 H         1 UNK         0.0888 
     73 H73        26.5271   26.2123    4.4260 H         1 UNK         0.0888 
     74 H74        26.4031   25.5956    6.0752 H         1 UNK         0.0888 
     75 H75        28.9982   24.2991    4.1159 H         1 UNK         0.3017 
     76 H76        27.9678   21.6383    4.2576 H         1 UNK         0.0873 
     77 H77        30.3863   22.0739    4.4248 H         1 UNK         0.0745 
     78 H78        30.0217   20.9436    3.1612 H         1 UNK         0.0745 
     79 H79        31.1897   24.6012    4.0006 H         1 UNK         0.0705 
     80 H80        32.5174   23.4645    3.9049 H         1 UNK         0.0705 
     81 H81        34.5011   24.0505    2.6508 H         1 UNK         0.1334 
     82 H82        34.5519   27.6046    0.2507 H         1 UNK         0.1417 
     83 H83        30.8933   26.3007    2.0611 H         1 UNK         0.1562 
     84 H84        32.6225   29.0046    0.1070 H         1 UNK         0.0748 
     85 H85        31.3532   28.7722    1.2785 H         1 UNK         0.0748 
     86 H86        30.0870   29.5173   -2.3084 H         1 UNK         0.0940 
     87 H87        30.5310   30.1718   -0.7687 H         1 UNK         0.0940 
     88 H88        28.1237   30.4087   -1.1686 H         1 UNK         0.0703 
     89 H89        27.4946   27.5560   -1.0511 H         1 UNK         0.3081 
     90 H90        25.5859   27.8858   -4.0213 H         1 UNK         0.0719 
     91 H91        27.7520   27.0925   -5.0020 H         1 UNK         0.0809 
     92 H92        26.6330   25.7633   -4.7582 H         1 UNK         0.0809 
     93 H93        27.9783   26.0030   -3.6411 H         1 UNK         0.0809 
     94 H94        25.8110   25.6181   -2.4184 H         1 UNK         0.2990 
     95 H95        23.8917   26.4217    0.3589 H         1 UNK         0.0690 
     96 H96        22.1208   24.9317   -0.5261 H         1 UNK         0.0788 
     97 H97        22.7242   25.1443   -2.1706 H         1 UNK         0.0788 
     98 H98        22.0291   26.5040   -1.2995 H         1 UNK         0.0788 
     99 H99        24.4237   23.9060   -0.8415 H         1 UNK         0.2993 
    100 H100       25.8633   22.5348    0.2742 H         1 UNK         0.0949 
    101 H101       27.0147   23.0978   -1.8932 H         1 UNK         0.0767 
    102 H102       28.3627   23.8073   -1.0107 H         1 UNK         0.0767 
    103 H103       28.0464   22.0773   -0.9041 H         1 UNK         0.0767 
    104 H104       27.7113   24.1365    1.8344 H         1 UNK         0.3013 
    105 H105       26.3137   28.7447    0.4090 H         1 UNK         0.3121 
    106 H106       27.2673   28.0630    2.9122 H         1 UNK         0.0774 
    107 H107       24.8439   28.2628    3.6291 H         1 UNK         0.0815 
    108 H108       24.4807   29.0219    2.0846 H         1 UNK         0.0815 
    109 H109       25.0688   27.3584    2.1472 H         1 UNK         0.0815 
    110 H110       26.4515   31.3086    1.8311 H         1 UNK         0.2987 
    111 H111       26.4206   32.5579    4.4383 H         1 UNK         0.0949 
    112 H112       25.2336   33.5298    2.4767 H         1 UNK         0.0806 
    113 H113       26.4266   34.6599    3.0916 H         1 UNK         0.0806 
    114 H114       26.7666   33.7456    1.6294 H         1 UNK         0.0806 
    115 H115       29.0305   31.3758    2.5012 H         1 UNK         0.3010 
    116 H116       31.0336   32.9357    4.0623 H         1 UNK         0.0829 
    117 H117       30.8201   33.9452    1.7659 H         1 UNK         0.0813 
    118 H118       32.3797   33.1725    1.9924 H         1 UNK         0.0813 
    119 H119       31.1333   32.3642    1.0487 H         1 UNK         0.0813 
    120 H120       29.8533   30.3150    4.5190 H         1 UNK         0.3038 
    121 H121       31.6412   28.2598    3.6143 H         1 UNK         0.0769 
    122 H122       29.2732   27.8029    4.1758 H         1 UNK         0.0811 
    123 H123       29.5364   28.2950    5.8477 H         1 UNK         0.0811 
    124 H124       30.3087   26.8457    5.2194 H         1 UNK         0.0811 
    125 H125       32.7107   26.7704    5.1095 H         1 UNK         0.3204 
    126 H126       34.3579   26.1729    6.4532 H         1 UNK         0.0748 
    127 H127       34.6408   27.1246    8.7029 H         1 UNK         0.0771 
    128 H128       33.6191   28.4953    8.3119 H         1 UNK         0.0771 
    129 H129       32.9337   26.8729    8.3740 H         1 UNK         0.0771 
    130 H130       35.4233   26.8654    4.4277 H         1 UNK         0.2980 
    131 H131       36.8908   29.2690    4.2299 H         1 UNK         0.0545 
    132 H132       37.7396   26.5409    6.2343 H         1 UNK         0.3459 
    133 H133       39.4096   27.0063    6.4411 H         1 UNK         0.3459 
    134 H134       36.2597   28.0928    2.2362 H         1 UNK         0.0616 
    135 H135       37.9941   28.1612    2.2715 H         1 UNK         0.0616 
    136 H136       36.5028   26.2293    0.3207 H         1 UNK         0.0634 
    137 H137       36.3175   24.5669    0.8161 H         1 UNK         0.0634 
@<TRIPOS>BOND
     1    1    2 1    
     2    1   72 1    
     3    1   73 1    
     4    1   74 1    
     5    2    3 2    
     6    2    4 am   BACKBONE|DICT|INTERRES
     7    4    5 1    
     8    4   75 1    
     9    5    6 1    
    10    5   35 1    
    11    5   76 1    
    12    6    7 1    
    13    6   77 1    
    14    6   78 1    
    15    7    8 1    
    16    8    9 1    
    17    8   79 1    
    18    8   80 1    
    19    9   10 ar   
    20    9   14 ar   
    21   10   11 ar   
    22   10   81 1    
    23   11   12 ar   
    24   11   71 1    
    25   12   13 ar   
    26   12   82 1    
    27   13   14 ar   
    28   13   15 1    
    29   14   83 1    
    30   15   16 1    
    31   15   84 1    
    32   15   85 1    
    33   16   17 1    
    34   17   18 1    
    35   17   86 1    
    36   17   87 1    
    37   18   19 1    
    38   18   37 1    
    39   18   88 1    
    40   19   20 am   BACKBONE|DICT|INTERRES
    41   19   89 1    
    42   20   21 2    
    43   20   22 1    
    44   22   23 1    
    45   22   24 1    
    46   22   90 1    
    47   23   91 1    
    48   23   92 1    
    49   23   93 1    
    50   24   25 am   BACKBONE|DICT|INTERRES
    51   24   94 1    
    52   25   26 2    
    53   25   27 1    
    54   27   28 1    
    55   27   29 1    
    56   27   95 1    
    57   28   96 1    
    58   28   97 1    
    59   28   98 1    
    60   29   30 am   BACKBONE|DICT|INTERRES
    61   29   99 1    
    62   30   31 2    
    63   30   32 1    
    64   32   33 1    
    65   32   34 1    
    66   32  100 1    
    67   33  101 1    
    68   33  102 1    
    69   33  103 1    
    70   34   35 am   BACKBONE|DICT|INTERRES
    71   34  104 1    
    72   35   36 2    
    73   37   38 2    
    74   37   39 am   BACKBONE|DICT|INTERRES
    75   39   40 1    
    76   39  105 1    
    77   40   41 1    
    78   40   42 1    
    79   40  106 1    
    80   41  107 1    
    81   41  108 1    
    82   41  109 1    
    83   42   43 2    
    84   42   44 am   BACKBONE|DICT|INTERRES
    85   44   45 1    
    86   44  110 1    
    87   45   46 1    
    88   45   47 1    
    89   45  111 1    
    90   46  112 1    
    91   46  113 1    
    92   46  114 1    
    93   47   48 2    
    94   47   49 am   BACKBONE|DICT|INTERRES
    95   49   50 1    
    96   49  115 1    
    97   50   51 1    
    98   50   52 1    
    99   50  116 1    
   100   51  117 1    
   101   51  118 1    
   102   51  119 1    
   103   52   53 2    
   104   52   54 am   BACKBONE|DICT|INTERRES
   105   54   55 1    
   106   54  120 1    
   107   55   56 1    
   108   55   57 1    
   109   55  121 1    
   110   56  122 1    
   111   56  123 1    
   112   56  124 1    
   113   57   58 2    
   114   57   59 am   BACKBONE|DICT|INTERRES
   115   59   60 1    
   116   59  125 1    
   117   60   61 1    
   118   60   62 1    
   119   60  126 1    
   120   61  127 1    
   121   61  128 1    
   122   61  129 1    
   123   62   63 2    
   124   62   64 am   BACKBONE|DICT|INTERRES
   125   64   65 1    
   126   64  130 1    
   127   65   66 1    
   128   65   69 1    
   129   65  131 1    
   130   66   67 am   BACKBONE|DICT|INTERRES
   131   66   68 2    
   132   67  132 1    
   133   67  133 1    
   134   69   70 1    
   135   69  134 1    
   136   69  135 1    
   137   70   71 1    
   138   71  136 1    
   139   71  137 1    
@<TRIPOS>SUBSTRUCTURE
     1 UNK         1 GROUP             0       ****    0 ROOT    
