@<TRIPOS>MOLECULE
3R136
137   139    1
SMALL
USER_CHARGES


@<TRIPOS>ATOM
      1 CA         29.8126   28.0772   -4.8373 C.3       0 UNK        -0.1979 
      2 C          29.2936   27.7748   -3.4394 C.2       0 UNK         0.4864 
      3 O          28.1521   28.1147   -3.1274 O.2       0 UNK        -0.5359 
      4 N          30.1278   27.1471   -2.5984 N.am      1 UNK        -0.4318 
      5 CA         29.7954   26.7383   -1.2301 C.3       1 UNK         0.0824 
      6 C6         31.0733   26.3912   -0.4286 C.3       12 UNK        -0.0944 
      7 S7         30.7795   26.3244    1.3654 S.3       12 UNK        -0.2672 
      8 C8         31.1831   24.5825    1.6959 C.3       12 UNK         0.0333 
      9 C9         30.7907   24.2193    3.1144 C.ar      12 UNK        -0.0807 
     10 C10        31.6660   24.4583    4.1763 C.ar      12 UNK        -0.0894 
     11 C11        31.2712   24.1897    5.4903 C.ar      12 UNK        -0.0804 
     12 C12        29.9868   23.6936    5.7358 C.ar      12 UNK        -0.0824 
     13 C13        29.1032   23.4500    4.6788 C.ar      12 UNK        -0.0762 
     14 C14        29.5283   23.6806    3.3671 C.ar      12 UNK        -0.0782 
     15 C15        27.6900   22.9526    4.9679 C.3       12 UNK         0.0230 
     16 S16        26.3994   23.7686    3.9621 S.3       12 UNK        -0.2608 
     17 C17        26.6971   25.5449    4.2827 C.3       12 UNK        -0.0989 
     18 CA         27.1954   26.3068    3.0187 C.3       5 UNK         0.0716 
     19 N          26.2955   26.2111    1.8658 N.am      5 UNK        -0.4135 
     20 C          24.9838   26.4818    1.8043 C.2       4 UNK         0.5031 
     21 O          24.3086   26.9428    2.7260 O.2       4 UNK        -0.5229 
     22 CA         24.2891   26.1080    0.4840 C.3       4 UNK         0.0329 
     23 CB         24.4825   27.2047   -0.5767 C.3       4 UNK        -0.2001 
     24 N          24.7707   24.8221   -0.0315 N.am      4 UNK        -0.4303 
     25 C          24.4470   23.6280    0.4921 C.2       3 UNK         0.5044 
     26 O          23.6286   23.4889    1.4021 O.2       3 UNK        -0.5152 
     27 CA         25.1176   22.3703   -0.0980 C.3       3 UNK         0.0319 
     28 CB         24.0617   21.4029   -0.6618 C.3       3 UNK        -0.2001 
     29 N          26.0711   22.6902   -1.1617 N.am      3 UNK        -0.4354 
     30 C          27.3909   22.8503   -1.0010 C.2       2 UNK         0.4964 
     31 O          27.9884   22.6333    0.0545 O.2       2 UNK        -0.5047 
     32 CA         28.1798   23.3653   -2.2260 C.3       2 UNK         0.0288 
     33 CB         27.2936   23.7181   -3.4441 C.3       2 UNK        -0.2113 
     34 N          29.0492   24.5109   -1.9253 N.am      2 UNK        -0.4145 
     35 C          28.7411   25.6129   -1.2202 C.2       1 UNK         0.5006 
     36 O          27.6753   25.7887   -0.6241 O.2       1 UNK        -0.5103 
     37 C          27.5974   27.7565    3.3559 C.2       5 UNK         0.5055 
     38 O          26.8233   28.6941    3.1534 O.2       5 UNK        -0.5220 
     39 N          28.8140   27.8901    3.9063 N.am      6 UNK        -0.4450 
     40 CA         29.4202   29.1101    4.4528 C.3       6 UNK         0.0367 
     41 CB         28.7255   29.5081    5.7716 C.3       6 UNK        -0.1929 
     42 C          29.5159   30.2746    3.4466 C.2       6 UNK         0.5070 
     43 O          29.1302   31.4027    3.7639 O.2       6 UNK        -0.5237 
     44 N          30.0248   29.9860    2.2411 N.am      7 UNK        -0.4739 
     45 CA         30.2511   30.9736    1.1829 C.3       7 UNK         0.0276 
     46 CB         30.3841   30.2614   -0.1737 C.3       7 UNK        -0.1927 
     47 C          31.4614   31.8762    1.4870 C.2       7 UNK         0.5013 
     48 O          32.5574   31.6285    0.9776 O.2       7 UNK        -0.5193 
     49 N          31.2264   32.9083    2.3093 N.am      8 UNK        -0.4253 
     50 CA         32.1469   33.9836    2.6940 C.3       8 UNK         0.0242 
     51 CB         32.4274   34.9150    1.4925 C.3       8 UNK        -0.2000 
     52 C          33.4232   33.4505    3.3683 C.2       8 UNK         0.4948 
     53 O          33.4102   33.2151    4.5767 O.2       8 UNK        -0.5275 
     54 N          34.4951   33.2779    2.5831 N.am      9 UNK        -0.4246 
     55 CA         35.7690   32.7059    3.0196 C.3       9 UNK         0.0261 
     56 CB         36.8484   33.0090    1.9678 C.3       9 UNK        -0.1959 
     57 C          35.6902   31.1932    3.2905 C.2       9 UNK         0.5033 
     58 O          36.4557   30.6961    4.1195 O.2       9 UNK        -0.5390 
     59 N          34.7808   30.4831    2.6050 N.am      10 UNK        -0.4215 
     60 CA         34.5191   29.0632    2.8414 C.3       10 UNK         0.0240 
     61 CB         33.6957   28.4852    1.6813 C.3       10 UNK        -0.1982 
     62 C          33.7889   28.8782    4.1796 C.2       10 UNK         0.4970 
     63 O          32.8603   29.6338    4.4695 O.2       10 UNK        -0.4916 
     64 N          34.2277   27.8854    4.9626 N.am      11 UNK        -0.4279 
     65 CA         33.7591   27.6074    6.3317 C.3       11 UNK         0.1003 
     66 C          34.1846   28.6717    7.3934 C.2       11 UNK         0.5709 
     67 N          35.0988   29.5867    7.0888 N.am      11 UNK        -0.7358 
     68 O          33.7091   28.6518    8.5259 O.2       11 UNK        -0.4999 
     69 C69        32.2417   27.2506    6.3785 C.3       12 UNK        -0.0954 
     70 S70        31.8392   25.9410    7.5816 S.3       12 UNK        -0.2268 
     71 C71        32.2333   24.4296    6.6448 C.3       12 UNK         0.0203 
     72 H72        29.7877   29.1507   -5.0222 H         1 UNK         0.0888 
     73 H73        30.8373   27.7332   -4.9765 H         1 UNK         0.0888 
     74 H74        29.1867   27.5880   -5.5830 H         1 UNK         0.0888 
     75 H75        31.0548   26.9058   -2.9188 H         1 UNK         0.3017 
     76 H76        29.3248   27.5949   -0.7473 H         1 UNK         0.0873 
     77 H77        31.5226   25.4607   -0.7802 H         1 UNK         0.0745 
     78 H78        31.8309   27.1596   -0.5902 H         1 UNK         0.0745 
     79 H79        32.2504   24.4169    1.5412 H         1 UNK         0.0705 
     80 H80        30.6577   23.9414    0.9854 H         1 UNK         0.0705 
     81 H81        32.6472   24.8691    3.9802 H         1 UNK         0.1334 
     82 H82        29.6758   23.5057    6.7546 H         1 UNK         0.1417 
     83 H83        28.8553   23.4891    2.5411 H         1 UNK         0.1562 
     84 H84        27.4424   23.0955    6.0210 H         1 UNK         0.0748 
     85 H85        27.6516   21.8783    4.7839 H         1 UNK         0.0748 
     86 H86        27.4163   25.6412    5.0981 H         1 UNK         0.0940 
     87 H87        25.7730   25.9846    4.6609 H         1 UNK         0.0940 
     88 H88        28.1049   25.8204    2.6719 H         1 UNK         0.0703 
     89 H89        26.7431   25.9069    1.0043 H         1 UNK         0.3081 
     90 H90        23.2187   26.0190    0.6826 H         1 UNK         0.0719 
     91 H91        25.5329   27.3491   -0.8315 H         1 UNK         0.0809 
     92 H92        23.9450   26.9672   -1.4948 H         1 UNK         0.0809 
     93 H93        24.1023   28.1617   -0.2171 H         1 UNK         0.0809 
     94 H94        25.4946   24.8602   -0.7358 H         1 UNK         0.2990 
     95 H95        25.6346   21.8683    0.7227 H         1 UNK         0.0690 
     96 H96        24.5237   20.4953   -1.0508 H         1 UNK         0.0788 
     97 H97        23.4845   21.8585   -1.4673 H         1 UNK         0.0788 
     98 H98        23.3563   21.0973    0.1123 H         1 UNK         0.0788 
     99 H99        25.6776   22.8830   -2.0721 H         1 UNK         0.2993 
    100 H100       28.8377   22.5457   -2.5193 H         1 UNK         0.0949 
    101 H101       26.6031   24.5339   -3.2244 H         1 UNK         0.0767 
    102 H102       27.9052   24.0320   -4.2904 H         1 UNK         0.0767 
    103 H103       26.7121   22.8597   -3.7832 H         1 UNK         0.0767 
    104 H104       29.9656   24.4728   -2.3473 H         1 UNK         0.3013 
    105 H105       29.3845   27.0589    3.9867 H         1 UNK         0.3121 
    106 H106       30.4470   28.8467    4.6964 H         1 UNK         0.0774 
    107 H107       29.2351   30.3497    6.2422 H         1 UNK         0.0815 
    108 H108       27.6887   29.8040    5.6081 H         1 UNK         0.0815 
    109 H109       28.7329   28.6861    6.4874 H         1 UNK         0.0815 
    110 H110       30.3276   29.0397    2.0584 H         1 UNK         0.2987 
    111 H111       29.3723   31.6196    1.1169 H         1 UNK         0.0949 
    112 H112       30.6550   30.9664   -0.9609 H         1 UNK         0.0806 
    113 H113       31.1487   29.4853   -0.1572 H         1 UNK         0.0806 
    114 H114       29.4373   29.8113   -0.4680 H         1 UNK         0.0806 
    115 H115       30.3223   32.9212    2.7690 H         1 UNK         0.3010 
    116 H116       31.6285   34.5763    3.4496 H         1 UNK         0.0829 
    117 H117       31.5106   35.3976    1.1536 H         1 UNK         0.0813 
    118 H118       33.1233   35.7097    1.7655 H         1 UNK         0.0813 
    119 H119       32.8496   34.3840    0.6389 H         1 UNK         0.0813 
    120 H120       34.3925   33.4662    1.5959 H         1 UNK         0.3038 
    121 H121       36.0569   33.1918    3.9544 H         1 UNK         0.0769 
    122 H122       37.8171   32.6161    2.2800 H         1 UNK         0.0811 
    123 H123       36.9686   34.0823    1.8197 H         1 UNK         0.0811 
    124 H124       36.6104   32.5598    1.0027 H         1 UNK         0.0811 
    125 H125       34.1319   30.9699    1.9921 H         1 UNK         0.3204 
    126 H126       35.4774   28.5402    2.8743 H         1 UNK         0.0748 
    127 H127       33.5769   27.4068    1.7914 H         1 UNK         0.0771 
    128 H128       32.6980   28.9209    1.6410 H         1 UNK         0.0771 
    129 H129       34.1779   28.6627    0.7200 H         1 UNK         0.0771 
    130 H130       35.0064   27.3242    4.6488 H         1 UNK         0.2980 
    131 H131       34.3183   26.7154    6.6143 H         1 UNK         0.0545 
    132 H132       35.4994   29.6351    6.1636 H         1 UNK         0.3459 
    133 H133       35.3705   30.2584    7.7889 H         1 UNK         0.3459 
    134 H134       31.8886   26.9269    5.3999 H         1 UNK         0.0616 
    135 H135       31.6451   28.1317    6.6200 H         1 UNK         0.0616 
    136 H136       32.1950   23.5783    7.3259 H         1 UNK         0.0634 
    137 H137       33.2621   24.4833    6.2859 H         1 UNK         0.0634 
@<TRIPOS>BOND
     1    1    2 1    
     2    1   72 1    
     3    1   73 1    
     4    1   74 1    
     5    2    3 2    
     6    2    4 am   BACKBONE|DICT|INTERRES
     7    4    5 1    
     8    4   75 1    
     9    5    6 1    
    10    5   35 1    
    11    5   76 1    
    12    6    7 1    
    13    6   77 1    
    14    6   78 1    
    15    7    8 1    
    16    8    9 1    
    17    8   79 1    
    18    8   80 1    
    19    9   10 ar   
    20    9   14 ar   
    21   10   11 ar   
    22   10   81 1    
    23   11   12 ar   
    24   11   71 1    
    25   12   13 ar   
    26   12   82 1    
    27   13   14 ar   
    28   13   15 1    
    29   14   83 1    
    30   15   16 1    
    31   15   84 1    
    32   15   85 1    
    33   16   17 1    
    34   17   18 1    
    35   17   86 1    
    36   17   87 1    
    37   18   19 1    
    38   18   37 1    
    39   18   88 1    
    40   19   20 am   BACKBONE|DICT|INTERRES
    41   19   89 1    
    42   20   21 2    
    43   20   22 1    
    44   22   23 1    
    45   22   24 1    
    46   22   90 1    
    47   23   91 1    
    48   23   92 1    
    49   23   93 1    
    50   24   25 am   BACKBONE|DICT|INTERRES
    51   24   94 1    
    52   25   26 2    
    53   25   27 1    
    54   27   28 1    
    55   27   29 1    
    56   27   95 1    
    57   28   96 1    
    58   28   97 1    
    59   28   98 1    
    60   29   30 am   BACKBONE|DICT|INTERRES
    61   29   99 1    
    62   30   31 2    
    63   30   32 1    
    64   32   33 1    
    65   32   34 1    
    66   32  100 1    
    67   33  101 1    
    68   33  102 1    
    69   33  103 1    
    70   34   35 am   BACKBONE|DICT|INTERRES
    71   34  104 1    
    72   35   36 2    
    73   37   38 2    
    74   37   39 am   BACKBONE|DICT|INTERRES
    75   39   40 1    
    76   39  105 1    
    77   40   41 1    
    78   40   42 1    
    79   40  106 1    
    80   41  107 1    
    81   41  108 1    
    82   41  109 1    
    83   42   43 2    
    84   42   44 am   BACKBONE|DICT|INTERRES
    85   44   45 1    
    86   44  110 1    
    87   45   46 1    
    88   45   47 1    
    89   45  111 1    
    90   46  112 1    
    91   46  113 1    
    92   46  114 1    
    93   47   48 2    
    94   47   49 am   BACKBONE|DICT|INTERRES
    95   49   50 1    
    96   49  115 1    
    97   50   51 1    
    98   50   52 1    
    99   50  116 1    
   100   51  117 1    
   101   51  118 1    
   102   51  119 1    
   103   52   53 2    
   104   52   54 am   BACKBONE|DICT|INTERRES
   105   54   55 1    
   106   54  120 1    
   107   55   56 1    
   108   55   57 1    
   109   55  121 1    
   110   56  122 1    
   111   56  123 1    
   112   56  124 1    
   113   57   58 2    
   114   57   59 am   BACKBONE|DICT|INTERRES
   115   59   60 1    
   116   59  125 1    
   117   60   61 1    
   118   60   62 1    
   119   60  126 1    
   120   61  127 1    
   121   61  128 1    
   122   61  129 1    
   123   62   63 2    
   124   62   64 am   BACKBONE|DICT|INTERRES
   125   64   65 1    
   126   64  130 1    
   127   65   66 1    
   128   65   69 1    
   129   65  131 1    
   130   66   67 am   BACKBONE|DICT|INTERRES
   131   66   68 2    
   132   67  132 1    
   133   67  133 1    
   134   69   70 1    
   135   69  134 1    
   136   69  135 1    
   137   70   71 1    
   138   71  136 1    
   139   71  137 1    
@<TRIPOS>SUBSTRUCTURE
     1 UNK         1 GROUP             0       ****    0 ROOT    
