@<TRIPOS>MOLECULE
3R136
137   139    1
SMALL
USER_CHARGES


@<TRIPOS>ATOM
      1 CA         32.7635   20.7975   -4.3663 C.3       0 UNK        -0.1979 
      2 C          32.2860   22.0026   -3.5691 C.2       0 UNK         0.4864 
      3 O          32.5881   23.1386   -3.9387 O.2       0 UNK        -0.5359 
      4 N          31.5507   21.7641   -2.4751 N.am      1 UNK        -0.4318 
      5 CA         30.9515   22.8004   -1.6297 C.3       1 UNK         0.0824 
      6 C6         30.5327   22.2196   -0.2562 C.3       12 UNK        -0.0944 
      7 S7         30.2464   23.4996    1.0125 S.3       12 UNK        -0.2672 
      8 C8         29.4661   22.4761    2.2961 C.3       12 UNK         0.0333 
      9 C9         29.3233   23.2333    3.6061 C.ar      12 UNK        -0.0807 
     10 C10        30.4590   23.5088    4.3723 C.ar      12 UNK        -0.0894 
     11 C11        30.3466   24.1740    5.5953 C.ar      12 UNK        -0.0804 
     12 C12        29.0814   24.5376    6.0639 C.ar      12 UNK        -0.0824 
     13 C13        27.9373   24.2866    5.2992 C.ar      12 UNK        -0.0762 
     14 C14        28.0652   23.6317    4.0697 C.ar      12 UNK        -0.0782 
     15 C15        26.5608   24.6909    5.8119 C.3       12 UNK         0.0230 
     16 S16        26.0957   26.3790    5.3020 S.3       12 UNK        -0.2608 
     17 C17        27.0860   27.4063    6.4514 C.3       12 UNK        -0.0989 
     18 CA         28.0518   28.4044    5.7561 C.3       5 UNK         0.0716 
     19 N          28.7460   27.8009    4.6221 N.am      5 UNK        -0.4135 
     20 C          29.7905   28.3260    3.9742 C.2       4 UNK         0.5031 
     21 O          30.3889   29.3299    4.3590 O.2       4 UNK        -0.5229 
     22 CA         30.2184   27.6398    2.6605 C.3       4 UNK         0.0329 
     23 CB         31.5021   26.8213    2.8688 C.3       4 UNK        -0.2001 
     24 N          29.2091   26.7701    2.0350 N.am      4 UNK        -0.4303 
     25 C          27.9542   27.1058    1.7002 C.2       3 UNK         0.5044 
     26 O          27.4635   28.2207    1.8940 O.2       3 UNK        -0.5152 
     27 CA         27.1132   25.9800    1.0728 C.3       3 UNK         0.0319 
     28 CB         25.6115   26.3203    0.9874 C.3       3 UNK        -0.2001 
     29 N          27.6366   25.5478   -0.2285 N.am      3 UNK        -0.4354 
     30 C          27.8089   26.2900   -1.3348 C.2       2 UNK         0.4964 
     31 O          27.5151   27.4805   -1.4225 O.2       2 UNK        -0.5047 
     32 CA         28.4378   25.5675   -2.5383 C.3       2 UNK         0.0288 
     33 CB         28.9011   26.5236   -3.6547 C.3       2 UNK        -0.2113 
     34 N          29.5731   24.7651   -2.0855 N.am      2 UNK        -0.4145 
     35 C          29.7569   23.4664   -2.3438 C.2       1 UNK         0.5006 
     36 O          29.0119   22.7909   -3.0597 O.2       1 UNK        -0.5103 
     37 C          27.3314   29.7318    5.4240 C.2       5 UNK         0.5055 
     38 O          27.1143   30.5090    6.3568 O.2       5 UNK        -0.5220 
     39 N          26.9481   29.9828    4.1591 N.am      6 UNK        -0.4450 
     40 CA         26.1427   31.1592    3.8057 C.3       6 UNK         0.0367 
     41 CB         24.6536   30.8763    4.0846 C.3       6 UNK        -0.1929 
     42 C          26.3210   31.6718    2.3695 C.2       6 UNK         0.5070 
     43 O          26.3310   32.8887    2.1795 O.2       6 UNK        -0.5237 
     44 N          26.3989   30.7748    1.3789 N.am      7 UNK        -0.4739 
     45 CA         26.3056   31.1262   -0.0456 C.3       7 UNK         0.0276 
     46 CB         25.3087   30.1736   -0.7251 C.3       7 UNK        -0.1927 
     47 C          27.6600   31.1204   -0.7749 C.2       7 UNK         0.5013 
     48 O          27.6975   31.4414   -1.9644 O.2       7 UNK        -0.5193 
     49 N          28.7419   30.7829   -0.0680 N.am      8 UNK        -0.4253 
     50 CA         30.1150   30.7795   -0.5669 C.3       8 UNK         0.0242 
     51 CB         30.4666   29.3708   -1.0841 C.3       8 UNK        -0.2000 
     52 C          31.0592   31.2673    0.5412 C.2       8 UNK         0.4948 
     53 O          30.5924   31.6432    1.6202 O.2       8 UNK        -0.5275 
     54 N          32.3677   31.2785    0.2475 N.am      9 UNK        -0.4246 
     55 CA         33.4381   31.6471    1.1809 C.3       9 UNK         0.0261 
     56 CB         34.7856   31.6226    0.4407 C.3       9 UNK        -0.1959 
     57 C          33.4795   30.7209    2.4101 C.2       9 UNK         0.5033 
     58 O          33.2131   29.5264    2.2701 O.2       9 UNK        -0.5390 
     59 N          33.8108   31.3032    3.5710 N.am      10 UNK        -0.4215 
     60 CA         33.7421   30.6936    4.9034 C.3       10 UNK         0.0240 
     61 CB         34.2317   31.7183    5.9414 C.3       10 UNK        -0.1982 
     62 C          34.5134   29.3705    5.0611 C.2       10 UNK         0.4970 
     63 O          35.5474   29.1704    4.4196 O.2       10 UNK        -0.4916 
     64 N          34.0030   28.5233    5.9627 N.am      11 UNK        -0.4279 
     65 CA         34.5240   27.1877    6.3001 C.3       11 UNK         0.1003 
     66 C          35.9486   27.1628    6.9290 C.2       11 UNK         0.5709 
     67 N          36.4694   28.2692    7.4466 N.am      11 UNK        -0.7358 
     68 O          36.5919   26.1160    6.9464 O.2       11 UNK        -0.4999 
     69 C69        33.5270   26.4105    7.2035 C.3       12 UNK        -0.0954 
     70 S70        31.8533   26.3044    6.4852 S.3       12 UNK        -0.2268 
     71 C71        31.5902   24.5062    6.4066 C.3       12 UNK         0.0203 
     72 H72        32.4369   19.8580   -3.9207 H         1 UNK         0.0888 
     73 H73        32.3751   20.8432   -5.3834 H         1 UNK         0.0888 
     74 H74        33.8520   20.7881   -4.4167 H         1 UNK         0.0888 
     75 H75        31.3079   20.8121   -2.2410 H         1 UNK         0.3017 
     76 H76        31.7199   23.5587   -1.4607 H         1 UNK         0.0873 
     77 H77        29.6451   21.5901   -0.3513 H         1 UNK         0.0745 
     78 H78        31.3224   21.5699    0.1255 H         1 UNK         0.0745 
     79 H79        28.4950   22.1294    1.9390 H         1 UNK         0.0705 
     80 H80        30.0704   21.5834    2.4656 H         1 UNK         0.0705 
     81 H81        31.4326   23.2110    4.0070 H         1 UNK         0.1334 
     82 H82        29.0001   25.0267    7.0236 H         1 UNK         0.1417 
     83 H83        27.1814   23.4154    3.4849 H         1 UNK         0.1562 
     84 H84        26.5189   24.6085    6.8991 H         1 UNK         0.0748 
     85 H85        25.8096   23.9964    5.4325 H         1 UNK         0.0748 
     86 H86        27.6625   26.7609    7.1105 H         1 UNK         0.0940 
     87 H87        26.3988   27.9233    7.1249 H         1 UNK         0.0940 
     88 H88        28.8230   28.6645    6.4848 H         1 UNK         0.0703 
     89 H89        28.3207   26.9635    4.2520 H         1 UNK         0.3081 
     90 H90        30.4403   28.4465    1.9614 H         1 UNK         0.0719 
     91 H91        31.9418   26.5227    1.9173 H         1 UNK         0.0809 
     92 H92        31.3146   25.9217    3.4508 H         1 UNK         0.0809 
     93 H93        32.2565   27.3956    3.4077 H         1 UNK         0.0809 
     94 H94        29.5098   25.8239    1.8425 H         1 UNK         0.2990 
     95 H95        27.2054   25.1222    1.7388 H         1 UNK         0.0690 
     96 H96        25.0324   25.4650    0.6400 H         1 UNK         0.0788 
     97 H97        25.4175   27.1498    0.3102 H         1 UNK         0.0788 
     98 H98        25.2198   26.6011    1.9661 H         1 UNK         0.0788 
     99 H99        27.9357   24.5835   -0.2720 H         1 UNK         0.2993 
    100 H100       27.6543   24.9254   -2.9468 H         1 UNK         0.0949 
    101 H101       29.6949   27.1877   -3.3132 H         1 UNK         0.0767 
    102 H102       29.2788   25.9691   -4.5140 H         1 UNK         0.0767 
    103 H103       28.0784   27.1463   -4.0088 H         1 UNK         0.0767 
    104 H104       30.2176   25.2294   -1.4599 H         1 UNK         0.3013 
    105 H105       27.1727   29.3218    3.4191 H         1 UNK         0.3121 
    106 H106       26.4480   31.9917    4.4440 H         1 UNK         0.0774 
    107 H107       24.0322   31.7290    3.8072 H         1 UNK         0.0815 
    108 H108       24.2976   30.0140    3.5196 H         1 UNK         0.0815 
    109 H109       24.4750   30.6804    5.1419 H         1 UNK         0.0815 
    110 H110       26.4888   29.7836    1.5900 H         1 UNK         0.2987 
    111 H111       25.9065   32.1370   -0.1558 H         1 UNK         0.0949 
    112 H112       24.3351   30.1989   -0.2357 H         1 UNK         0.0806 
    113 H113       25.1539   30.4463   -1.7698 H         1 UNK         0.0806 
    114 H114       25.6675   29.1469   -0.7100 H         1 UNK         0.0806 
    115 H115       28.6393   30.6100    0.9234 H         1 UNK         0.3010 
    116 H116       30.2066   31.4918   -1.3898 H         1 UNK         0.0829 
    117 H117       29.7949   29.0833   -1.8924 H         1 UNK         0.0813 
    118 H118       31.4808   29.3226   -1.4808 H         1 UNK         0.0813 
    119 H119       30.3798   28.6154   -0.3045 H         1 UNK         0.0813 
    120 H120       32.6623   30.9389   -0.6559 H         1 UNK         0.3038 
    121 H121       33.2416   32.6676    1.5167 H         1 UNK         0.0769 
    122 H122       35.0199   30.6254    0.0654 H         1 UNK         0.0811 
    123 H123       35.6006   31.9197    1.1021 H         1 UNK         0.0811 
    124 H124       34.7893   32.3110   -0.4047 H         1 UNK         0.0811 
    125 H125       34.0548   32.2824    3.5522 H         1 UNK         0.3204 
    126 H126       32.6867   30.4903    5.0940 H         1 UNK         0.0748 
    127 H127       34.1563   31.3214    6.9547 H         1 UNK         0.0771 
    128 H128       35.2749   31.9912    5.7752 H         1 UNK         0.0771 
    129 H129       33.6361   32.6311    5.9121 H         1 UNK         0.0771 
    130 H130       33.1521   28.7811    6.4402 H         1 UNK         0.2980 
    131 H131       34.6060   26.6441    5.3570 H         1 UNK         0.0545 
    132 H132       35.9522   29.1328    7.4323 H         1 UNK         0.3459 
    133 H133       37.3933   28.2389    7.8480 H         1 UNK         0.3459 
    134 H134       33.8958   25.4018    7.3988 H         1 UNK         0.0616 
    135 H135       33.4416   26.8944    8.1781 H         1 UNK         0.0616 
    136 H136       32.4705   24.0331    5.9685 H         1 UNK         0.0634 
    137 H137       31.4881   24.1092    7.4175 H         1 UNK         0.0634 
@<TRIPOS>BOND
     1    1    2 1    
     2    1   72 1    
     3    1   73 1    
     4    1   74 1    
     5    2    3 2    
     6    2    4 am   BACKBONE|DICT|INTERRES
     7    4    5 1    
     8    4   75 1    
     9    5    6 1    
    10    5   35 1    
    11    5   76 1    
    12    6    7 1    
    13    6   77 1    
    14    6   78 1    
    15    7    8 1    
    16    8    9 1    
    17    8   79 1    
    18    8   80 1    
    19    9   10 ar   
    20    9   14 ar   
    21   10   11 ar   
    22   10   81 1    
    23   11   12 ar   
    24   11   71 1    
    25   12   13 ar   
    26   12   82 1    
    27   13   14 ar   
    28   13   15 1    
    29   14   83 1    
    30   15   16 1    
    31   15   84 1    
    32   15   85 1    
    33   16   17 1    
    34   17   18 1    
    35   17   86 1    
    36   17   87 1    
    37   18   19 1    
    38   18   37 1    
    39   18   88 1    
    40   19   20 am   BACKBONE|DICT|INTERRES
    41   19   89 1    
    42   20   21 2    
    43   20   22 1    
    44   22   23 1    
    45   22   24 1    
    46   22   90 1    
    47   23   91 1    
    48   23   92 1    
    49   23   93 1    
    50   24   25 am   BACKBONE|DICT|INTERRES
    51   24   94 1    
    52   25   26 2    
    53   25   27 1    
    54   27   28 1    
    55   27   29 1    
    56   27   95 1    
    57   28   96 1    
    58   28   97 1    
    59   28   98 1    
    60   29   30 am   BACKBONE|DICT|INTERRES
    61   29   99 1    
    62   30   31 2    
    63   30   32 1    
    64   32   33 1    
    65   32   34 1    
    66   32  100 1    
    67   33  101 1    
    68   33  102 1    
    69   33  103 1    
    70   34   35 am   BACKBONE|DICT|INTERRES
    71   34  104 1    
    72   35   36 2    
    73   37   38 2    
    74   37   39 am   BACKBONE|DICT|INTERRES
    75   39   40 1    
    76   39  105 1    
    77   40   41 1    
    78   40   42 1    
    79   40  106 1    
    80   41  107 1    
    81   41  108 1    
    82   41  109 1    
    83   42   43 2    
    84   42   44 am   BACKBONE|DICT|INTERRES
    85   44   45 1    
    86   44  110 1    
    87   45   46 1    
    88   45   47 1    
    89   45  111 1    
    90   46  112 1    
    91   46  113 1    
    92   46  114 1    
    93   47   48 2    
    94   47   49 am   BACKBONE|DICT|INTERRES
    95   49   50 1    
    96   49  115 1    
    97   50   51 1    
    98   50   52 1    
    99   50  116 1    
   100   51  117 1    
   101   51  118 1    
   102   51  119 1    
   103   52   53 2    
   104   52   54 am   BACKBONE|DICT|INTERRES
   105   54   55 1    
   106   54  120 1    
   107   55   56 1    
   108   55   57 1    
   109   55  121 1    
   110   56  122 1    
   111   56  123 1    
   112   56  124 1    
   113   57   58 2    
   114   57   59 am   BACKBONE|DICT|INTERRES
   115   59   60 1    
   116   59  125 1    
   117   60   61 1    
   118   60   62 1    
   119   60  126 1    
   120   61  127 1    
   121   61  128 1    
   122   61  129 1    
   123   62   63 2    
   124   62   64 am   BACKBONE|DICT|INTERRES
   125   64   65 1    
   126   64  130 1    
   127   65   66 1    
   128   65   69 1    
   129   65  131 1    
   130   66   67 am   BACKBONE|DICT|INTERRES
   131   66   68 2    
   132   67  132 1    
   133   67  133 1    
   134   69   70 1    
   135   69  134 1    
   136   69  135 1    
   137   70   71 1    
   138   71  136 1    
   139   71  137 1    
@<TRIPOS>SUBSTRUCTURE
     1 UNK         1 GROUP             0       ****    0 ROOT    
