@<TRIPOS>MOLECULE
3R136
137   139    1
SMALL
USER_CHARGES


@<TRIPOS>ATOM
      1 CA         31.8404   26.2025    1.1413 C.3       0 UNK        -0.1979 
      2 C          32.5851   25.4109    0.0714 C.2       0 UNK         0.4864 
      3 O          33.6782   25.8094   -0.3252 O.2       0 UNK        -0.5359 
      4 N          32.0391   24.3005   -0.4429 N.am      1 UNK        -0.4318 
      5 CA         30.7455   23.6955   -0.0873 C.3       1 UNK         0.0824 
      6 C6         30.7451   22.1544   -0.3006 C.3       12 UNK        -0.0944 
      7 S7         32.2564   21.2958    0.2739 S.3       12 UNK        -0.2672 
      8 C8         31.8320   20.8035    1.9742 C.3       12 UNK         0.0333 
      9 C9         31.8459   21.9931    2.9216 C.ar      12 UNK        -0.0807 
     10 C10        33.0595   22.5435    3.3474 C.ar      12 UNK        -0.0894 
     11 C11        33.0755   23.6498    4.2030 C.ar      12 UNK        -0.0804 
     12 C12        31.8669   24.2118    4.6239 C.ar      12 UNK        -0.0824 
     13 C13        30.6488   23.6721    4.1996 C.ar      12 UNK        -0.0762 
     14 C14        30.6448   22.5496    3.3667 C.ar      12 UNK        -0.0782 
     15 C15        29.3367   24.3166    4.6139 C.3       12 UNK         0.0230 
     16 S16        28.4644   24.9698    3.1575 S.3       12 UNK        -0.2608 
     17 C17        27.3532   26.1998    3.9124 C.3       12 UNK        -0.0989 
     18 CA         27.0107   27.3126    2.8845 C.3       5 UNK         0.0716 
     19 N          26.2415   26.8127    1.7398 N.am      5 UNK        -0.4135 
     20 C          24.9822   26.3446    1.7594 C.2       4 UNK         0.5031 
     21 O          24.3294   26.1868    2.7926 O.2       4 UNK        -0.5229 
     22 CA         24.3224   26.0350    0.3956 C.3       4 UNK         0.0329 
     23 CB         22.8016   26.2987    0.4134 C.3       4 UNK        -0.2001 
     24 N          24.9420   26.7304   -0.7420 N.am      4 UNK        -0.4303 
     25 C          25.1400   28.0517   -0.8775 C.2       3 UNK         0.5044 
     26 O          24.7602   28.8866   -0.0547 O.2       3 UNK        -0.5152 
     27 CA         25.9732   28.5009   -2.0940 C.3       3 UNK         0.0319 
     28 CB         26.6484   29.8703   -1.8620 C.3       3 UNK        -0.2001 
     29 N          26.9736   27.5122   -2.5281 N.am      3 UNK        -0.4354 
     30 C          27.9636   26.9763   -1.7954 C.2       2 UNK         0.4964 
     31 O          28.1277   27.1952   -0.5918 O.2       2 UNK        -0.5047 
     32 CA         28.9289   26.0597   -2.5704 C.3       2 UNK         0.0288 
     33 CB         29.7548   26.8807   -3.5779 C.3       2 UNK        -0.2113 
     34 N          29.8630   25.3232   -1.7180 N.am      2 UNK        -0.4145 
     35 C          29.5620   24.3484   -0.8467 C.2       1 UNK         0.5006 
     36 O          28.4163   23.9355   -0.6584 O.2       1 UNK        -0.5103 
     37 C          26.3882   28.5754    3.5301 C.2       5 UNK         0.5055 
     38 O          26.6649   28.8570    4.6973 O.2       5 UNK        -0.5220 
     39 N          25.5847   29.3385    2.7698 N.am      6 UNK        -0.4450 
     40 CA         24.9154   30.5536    3.2458 C.3       6 UNK         0.0367 
     41 CB         23.7404   30.8857    2.3122 C.3       6 UNK        -0.1929 
     42 C          25.8548   31.7663    3.3703 C.2       6 UNK         0.5070 
     43 O          25.5509   32.6792    4.1392 O.2       6 UNK        -0.5237 
     44 N          26.9620   31.7681    2.6159 N.am      7 UNK        -0.4739 
     45 CA         27.9499   32.8522    2.5997 C.3       7 UNK         0.0276 
     46 CB         27.4843   33.9831    1.6635 C.3       7 UNK        -0.1927 
     47 C          29.3545   32.3718    2.2103 C.2       7 UNK         0.5013 
     48 O          30.3332   32.9101    2.7272 O.2       7 UNK        -0.5193 
     49 N          29.4427   31.3775    1.3129 N.am      8 UNK        -0.4253 
     50 CA         30.7044   30.8602    0.7668 C.3       8 UNK         0.0242 
     51 CB         30.3987   29.9871   -0.4613 C.3       8 UNK        -0.2000 
     52 C          31.5728   30.0733    1.7663 C.2       8 UNK         0.4948 
     53 O          32.7585   29.8757    1.4972 O.2       8 UNK        -0.5275 
     54 N          30.9908   29.6259    2.8878 N.am      9 UNK        -0.4246 
     55 CA         31.6208   28.7951    3.9204 C.3       9 UNK         0.0261 
     56 CB         30.5209   28.1122    4.7492 C.3       9 UNK        -0.1959 
     57 C          32.6564   29.5342    4.7916 C.2       9 UNK         0.5033 
     58 O          32.6122   29.4399    6.0198 O.2       9 UNK        -0.5390 
     59 N          33.6156   30.2080    4.1442 N.am      10 UNK        -0.4215 
     60 CA         34.7885   30.8319    4.7689 C.3       10 UNK         0.0240 
     61 CB         35.5454   31.6552    3.7147 C.3       10 UNK        -0.1982 
     62 C          35.7278   29.8101    5.4394 C.2       10 UNK         0.4970 
     63 O          36.4433   30.1659    6.3761 O.2       10 UNK        -0.4916 
     64 N          35.6798   28.5593    4.9647 N.am      11 UNK        -0.4279 
     65 CA         36.2923   27.3767    5.5799 C.3       11 UNK         0.1003 
     66 C          35.6455   26.9225    6.9239 C.2       11 UNK         0.5709 
     67 N          34.4959   27.4477    7.3354 N.am      11 UNK        -0.7358 
     68 O          36.2087   26.0765    7.6141 O.2       11 UNK        -0.4999 
     69 C69        36.3949   26.2114    4.5578 C.3       12 UNK        -0.0954 
     70 S70        34.8033   25.7626    3.7747 S.3       12 UNK        -0.2268 
     71 C71        34.3941   24.2391    4.6785 C.3       12 UNK         0.0203 
     72 H72        31.8440   25.6630    2.0877 H         1 UNK         0.0888 
     73 H73        32.3367   27.1584    1.2962 H         1 UNK         0.0888 
     74 H74        30.8092   26.4102    0.8573 H         1 UNK         0.0888 
     75 H75        32.5704   23.7815   -1.1279 H         1 UNK         0.3017 
     76 H76        30.5623   23.8753    0.9719 H         1 UNK         0.0873 
     77 H77        29.8756   21.7063    0.1841 H         1 UNK         0.0745 
     78 H78        30.6439   21.9222   -1.3628 H         1 UNK         0.0745 
     79 H79        30.8624   20.3029    1.9819 H         1 UNK         0.0705 
     80 H80        32.5582   20.0649    2.3169 H         1 UNK         0.0705 
     81 H81        33.9907   22.1132    3.0046 H         1 UNK         0.1334 
     82 H82        31.8804   25.0780    5.2713 H         1 UNK         0.1417 
     83 H83        29.7020   22.1351    3.0356 H         1 UNK         0.1562 
     84 H84        29.5190   25.1181    5.3309 H         1 UNK         0.0748 
     85 H85        28.7056   23.5832    5.1177 H         1 UNK         0.0748 
     86 H86        27.8420   26.6162    4.7939 H         1 UNK         0.0940 
     87 H87        26.4545   25.7011    4.2776 H         1 UNK         0.0940 
     88 H88        27.9519   27.6671    2.4608 H         1 UNK         0.0703 
     89 H89        26.7181   26.8827    0.8457 H         1 UNK         0.3081 
     90 H90        24.4755   24.9687    0.2234 H         1 UNK         0.0719 
     91 H91        22.3463   26.0636   -0.5486 H         1 UNK         0.0809 
     92 H92        22.5760   27.3401    0.6460 H         1 UNK         0.0809 
     93 H93        22.3034   25.6829    1.1633 H         1 UNK         0.0809 
     94 H94        25.3216   26.1316   -1.4622 H         1 UNK         0.2990 
     95 H95        25.2678   28.6125   -2.9187 H         1 UNK         0.0690 
     96 H96        27.2263   30.1811   -2.7323 H         1 UNK         0.0788 
     97 H97        27.3209   29.8459   -1.0046 H         1 UNK         0.0788 
     98 H98        25.9073   30.6481   -1.6729 H         1 UNK         0.0788 
     99 H99        26.9188   27.2523   -3.5038 H         1 UNK         0.2993 
    100 H100       28.3294   25.3268   -3.1146 H         1 UNK         0.0949 
    101 H101       29.1162   27.3983   -4.2948 H         1 UNK         0.0767 
    102 H102       30.3609   27.6378   -3.0777 H         1 UNK         0.0767 
    103 H103       30.4251   26.2430   -4.1551 H         1 UNK         0.0767 
    104 H104       30.8344   25.5839   -1.7990 H         1 UNK         0.3013 
    105 H105       25.3775   29.0549    1.8150 H         1 UNK         0.3121 
    106 H106       24.5082   30.3520    4.2391 H         1 UNK         0.0774 
    107 H107       23.1749   31.7404    2.6857 H         1 UNK         0.0815 
    108 H108       24.0820   31.1363    1.3071 H         1 UNK         0.0815 
    109 H109       23.0473   30.0480    2.2310 H         1 UNK         0.0815 
    110 H110       27.1366   30.9609    2.0381 H         1 UNK         0.2987 
    111 H111       28.0362   33.2585    3.6105 H         1 UNK         0.0949 
    112 H112       27.3365   33.6272    0.6433 H         1 UNK         0.0806 
    113 H113       26.5458   34.4206    2.0042 H         1 UNK         0.0806 
    114 H114       28.2191   34.7888    1.6265 H         1 UNK         0.0806 
    115 H115       28.5997   31.0282    0.8859 H         1 UNK         0.3010 
    116 H116       31.2988   31.7145    0.4351 H         1 UNK         0.0829 
    117 H117       31.3183   29.6278   -0.9258 H         1 UNK         0.0813 
    118 H118       29.8502   30.5414   -1.2230 H         1 UNK         0.0813 
    119 H119       29.8117   29.1105   -0.1901 H         1 UNK         0.0813 
    120 H120       30.0289   29.8828    3.0482 H         1 UNK         0.3038 
    121 H121       32.1778   28.0007    3.4225 H         1 UNK         0.0769 
    122 H122       30.9452   27.4649    5.5177 H         1 UNK         0.0811 
    123 H123       29.9018   27.4846    4.1122 H         1 UNK         0.0811 
    124 H124       29.8759   28.8368    5.2478 H         1 UNK         0.0811 
    125 H125       33.5602   30.2221    3.1267 H         1 UNK         0.3204 
    126 H126       34.4319   31.5094    5.5475 H         1 UNK         0.0748 
    127 H127       36.4113   32.1523    4.1545 H         1 UNK         0.0771 
    128 H128       35.9072   31.0299    2.8973 H         1 UNK         0.0771 
    129 H129       34.9101   32.4313    3.2872 H         1 UNK         0.0771 
    130 H130       35.0683   28.3659    4.1863 H         1 UNK         0.2980 
    131 H131       37.3146   27.6576    5.8397 H         1 UNK         0.0545 
    132 H132       34.0072   28.1510    6.7942 H         1 UNK         0.3459 
    133 H133       34.1073   27.1383    8.2116 H         1 UNK         0.3459 
    134 H134       36.8493   25.3297    5.0135 H         1 UNK         0.0616 
    135 H135       37.0755   26.5013    3.7559 H         1 UNK         0.0616 
    136 H136       35.2021   23.5169    4.5518 H         1 UNK         0.0634 
    137 H137       34.3334   24.4535    5.7463 H         1 UNK         0.0634 
@<TRIPOS>BOND
     1    1    2 1    
     2    1   72 1    
     3    1   73 1    
     4    1   74 1    
     5    2    3 2    
     6    2    4 am   BACKBONE|DICT|INTERRES
     7    4    5 1    
     8    4   75 1    
     9    5    6 1    
    10    5   35 1    
    11    5   76 1    
    12    6    7 1    
    13    6   77 1    
    14    6   78 1    
    15    7    8 1    
    16    8    9 1    
    17    8   79 1    
    18    8   80 1    
    19    9   10 ar   
    20    9   14 ar   
    21   10   11 ar   
    22   10   81 1    
    23   11   12 ar   
    24   11   71 1    
    25   12   13 ar   
    26   12   82 1    
    27   13   14 ar   
    28   13   15 1    
    29   14   83 1    
    30   15   16 1    
    31   15   84 1    
    32   15   85 1    
    33   16   17 1    
    34   17   18 1    
    35   17   86 1    
    36   17   87 1    
    37   18   19 1    
    38   18   37 1    
    39   18   88 1    
    40   19   20 am   BACKBONE|DICT|INTERRES
    41   19   89 1    
    42   20   21 2    
    43   20   22 1    
    44   22   23 1    
    45   22   24 1    
    46   22   90 1    
    47   23   91 1    
    48   23   92 1    
    49   23   93 1    
    50   24   25 am   BACKBONE|DICT|INTERRES
    51   24   94 1    
    52   25   26 2    
    53   25   27 1    
    54   27   28 1    
    55   27   29 1    
    56   27   95 1    
    57   28   96 1    
    58   28   97 1    
    59   28   98 1    
    60   29   30 am   BACKBONE|DICT|INTERRES
    61   29   99 1    
    62   30   31 2    
    63   30   32 1    
    64   32   33 1    
    65   32   34 1    
    66   32  100 1    
    67   33  101 1    
    68   33  102 1    
    69   33  103 1    
    70   34   35 am   BACKBONE|DICT|INTERRES
    71   34  104 1    
    72   35   36 2    
    73   37   38 2    
    74   37   39 am   BACKBONE|DICT|INTERRES
    75   39   40 1    
    76   39  105 1    
    77   40   41 1    
    78   40   42 1    
    79   40  106 1    
    80   41  107 1    
    81   41  108 1    
    82   41  109 1    
    83   42   43 2    
    84   42   44 am   BACKBONE|DICT|INTERRES
    85   44   45 1    
    86   44  110 1    
    87   45   46 1    
    88   45   47 1    
    89   45  111 1    
    90   46  112 1    
    91   46  113 1    
    92   46  114 1    
    93   47   48 2    
    94   47   49 am   BACKBONE|DICT|INTERRES
    95   49   50 1    
    96   49  115 1    
    97   50   51 1    
    98   50   52 1    
    99   50  116 1    
   100   51  117 1    
   101   51  118 1    
   102   51  119 1    
   103   52   53 2    
   104   52   54 am   BACKBONE|DICT|INTERRES
   105   54   55 1    
   106   54  120 1    
   107   55   56 1    
   108   55   57 1    
   109   55  121 1    
   110   56  122 1    
   111   56  123 1    
   112   56  124 1    
   113   57   58 2    
   114   57   59 am   BACKBONE|DICT|INTERRES
   115   59   60 1    
   116   59  125 1    
   117   60   61 1    
   118   60   62 1    
   119   60  126 1    
   120   61  127 1    
   121   61  128 1    
   122   61  129 1    
   123   62   63 2    
   124   62   64 am   BACKBONE|DICT|INTERRES
   125   64   65 1    
   126   64  130 1    
   127   65   66 1    
   128   65   69 1    
   129   65  131 1    
   130   66   67 am   BACKBONE|DICT|INTERRES
   131   66   68 2    
   132   67  132 1    
   133   67  133 1    
   134   69   70 1    
   135   69  134 1    
   136   69  135 1    
   137   70   71 1    
   138   71  136 1    
   139   71  137 1    
@<TRIPOS>SUBSTRUCTURE
     1 UNK         1 GROUP             0       ****    0 ROOT    
