@<TRIPOS>MOLECULE
3R136
137   139    1
SMALL
USER_CHARGES


@<TRIPOS>ATOM
      1 CA         31.8152   25.4151   -5.4531 C.3       0 UNK        -0.1979 
      2 C          30.8925   25.4164   -4.2431 C.2       0 UNK         0.4864 
      3 O          29.6802   25.2626   -4.3994 O.2       0 UNK        -0.5359 
      4 N          31.4560   25.5956   -3.0412 N.am      1 UNK        -0.4318 
      5 CA         30.7328   25.5641   -1.7682 C.3       1 UNK         0.0824 
      6 C6         31.5875   26.1735   -0.6314 C.3       12 UNK        -0.0944 
      7 S7         30.6213   26.5373    0.8722 S.3       12 UNK        -0.2672 
      8 C8         31.2206   25.2295    1.9806 C.3       12 UNK         0.0333 
      9 C9         30.5522   25.3362    3.3384 C.ar      12 UNK        -0.0807 
     10 C10        31.1241   26.1257    4.3398 C.ar      12 UNK        -0.0894 
     11 C11        30.5037   26.2475    5.5861 C.ar      12 UNK        -0.0804 
     12 C12        29.3032   25.5743    5.8250 C.ar      12 UNK        -0.0824 
     13 C13        28.7108   24.8004    4.8217 C.ar      12 UNK        -0.0762 
     14 C14        29.3480   24.6704    3.5843 C.ar      12 UNK        -0.0782 
     15 C15        27.3511   24.1575    5.0533 C.3       12 UNK         0.0230 
     16 S16        26.0214   25.0626    4.1900 S.3       12 UNK        -0.2608 
     17 C17        26.2582   26.7651    4.8063 C.3       12 UNK        -0.0989 
     18 CA         27.0381   27.6388    3.7905 C.3       5 UNK         0.0716 
     19 N          26.2663   27.8469    2.5655 N.am      5 UNK        -0.4135 
     20 C          26.6243   28.5721    1.4974 C.2       4 UNK         0.5031 
     21 O          27.6827   29.2012    1.4017 O.2       4 UNK        -0.5229 
     22 CA         25.6018   28.5668    0.3439 C.3       4 UNK         0.0329 
     23 CB         26.0877   29.3163   -0.9147 C.3       4 UNK        -0.2001 
     24 N          25.1529   27.2050    0.0129 N.am      4 UNK        -0.4303 
     25 C          25.9189   26.2009   -0.4404 C.2       3 UNK         0.5044 
     26 O          27.1215   26.3096   -0.7057 O.2       3 UNK        -0.5152 
     27 CA         25.2138   24.8448   -0.6484 C.3       3 UNK         0.0319 
     28 CB         24.1927   24.9209   -1.7969 C.3       3 UNK        -0.2001 
     29 N          26.2150   23.8339   -0.9809 N.am      3 UNK        -0.4354 
     30 C          26.9778   23.2014   -0.0796 C.2       2 UNK         0.4964 
     31 O          26.6987   23.0716    1.1115 O.2       2 UNK        -0.5047 
     32 CA         28.3494   22.7672   -0.5959 C.3       2 UNK         0.0288 
     33 CB         28.2367   21.7191   -1.7236 C.3       2 UNK        -0.2113 
     34 N          29.0151   23.9914   -1.0413 N.am      2 UNK        -0.4145 
     35 C          30.2823   24.1258   -1.4386 C.2       1 UNK         0.5006 
     36 O          31.0895   23.1961   -1.5212 O.2       1 UNK        -0.5103 
     37 C          27.4659   28.9695    4.4332 C.2       5 UNK         0.5055 
     38 O          26.6072   29.8065    4.7191 O.2       5 UNK        -0.5220 
     39 N          28.7834   29.1300    4.6236 N.am      6 UNK        -0.4450 
     40 CA         29.4812   30.3086    5.1552 C.3       6 UNK         0.0367 
     41 CB         28.9919   30.6603    6.5766 C.3       6 UNK        -0.1929 
     42 C          29.4692   31.5403    4.2244 C.2       6 UNK         0.5070 
     43 O          30.0228   32.5714    4.6096 O.2       6 UNK        -0.5237 
     44 N          28.8642   31.4351    3.0327 N.am      7 UNK        -0.4739 
     45 CA         28.7750   32.5106    2.0451 C.3       7 UNK         0.0276 
     46 CB         27.3131   32.6877    1.6019 C.3       7 UNK        -0.1927 
     47 C          29.6868   32.2289    0.8455 C.2       7 UNK         0.5013 
     48 O          30.4360   33.1205    0.4442 O.2       7 UNK        -0.5193 
     49 N          29.6246   31.0054    0.2979 N.am      8 UNK        -0.4253 
     50 CA         30.4637   30.5778   -0.8270 C.3       8 UNK         0.0242 
     51 CB         29.8268   29.3704   -1.5327 C.3       8 UNK        -0.2000 
     52 C          31.9203   30.2923   -0.4224 C.2       8 UNK         0.4948 
     53 O          32.8198   30.5154   -1.2342 O.2       8 UNK        -0.5275 
     54 N          32.1350   29.8359    0.8163 N.am      9 UNK        -0.4246 
     55 CA         33.4409   29.6239    1.4320 C.3       9 UNK         0.0261 
     56 CB         34.0854   28.3220    0.9183 C.3       9 UNK        -0.1959 
     57 C          33.2570   29.5704    2.9509 C.2       9 UNK         0.5033 
     58 O          32.1574   29.2711    3.4236 O.2       9 UNK        -0.5390 
     59 N          34.3446   29.8391    3.6808 N.am      10 UNK        -0.4215 
     60 CA         34.4330   29.6761    5.1321 C.3       10 UNK         0.0240 
     61 CB         35.5209   30.6215    5.6708 C.3       10 UNK        -0.1982 
     62 C          34.7534   28.2162    5.4976 C.2       10 UNK         0.4970 
     63 O          35.2386   27.4600    4.6515 O.2       10 UNK        -0.4916 
     64 N          34.4990   27.8598    6.7599 N.am      11 UNK        -0.4279 
     65 CA         34.7004   26.5094    7.3090 C.3       11 UNK         0.1003 
     66 C          35.2623   26.4971    8.7606 C.2       11 UNK         0.5709 
     67 N          35.7221   27.6194    9.3038 N.am      11 UNK        -0.7358 
     68 O          35.3103   25.4492    9.4008 O.2       11 UNK        -0.4999 
     69 C69        33.4495   25.6096    7.1032 C.3       12 UNK        -0.0954 
     70 S70        31.9516   26.2070    7.9634 S.3       12 UNK        -0.2268 
     71 C71        31.0989   27.1466    6.6583 C.3       12 UNK         0.0203 
     72 H72        31.5275   26.2062   -6.1450 H         1 UNK         0.0888 
     73 H73        32.8566   25.5725   -5.1727 H         1 UNK         0.0888 
     74 H74        31.7454   24.4619   -5.9765 H         1 UNK         0.0888 
     75 H75        32.4598   25.6820   -2.9737 H         1 UNK         0.3017 
     76 H76        29.8431   26.1875   -1.8906 H         1 UNK         0.0873 
     77 H77        32.0120   27.1218   -0.9638 H         1 UNK         0.0745 
     78 H78        32.4401   25.5349   -0.3920 H         1 UNK         0.0745 
     79 H79        32.3034   25.3096    2.0890 H         1 UNK         0.0705 
     80 H80        31.0219   24.2521    1.5384 H         1 UNK         0.0705 
     81 H81        32.0448   26.6584    4.1416 H         1 UNK         0.1334 
     82 H82        28.8151   25.6816    6.7842 H         1 UNK         0.1417 
     83 H83        28.8832   24.0855    2.8013 H         1 UNK         0.1562 
     84 H84        27.1208   24.1108    6.1188 H         1 UNK         0.0748 
     85 H85        27.3682   23.1265    4.6969 H         1 UNK         0.0748 
     86 H86        26.7631   26.7291    5.7729 H         1 UNK         0.0940 
     87 H87        25.2772   27.1997    5.0084 H         1 UNK         0.0940 
     88 H88        27.9425   27.1093    3.4881 H         1 UNK         0.0703 
     89 H89        25.3808   27.3656    2.5323 H         1 UNK         0.3081 
     90 H90        24.7267   29.1006    0.7178 H         1 UNK         0.0719 
     91 H91        26.9503   28.8290   -1.3651 H         1 UNK         0.0809 
     92 H92        25.3039   29.3673   -1.6700 H         1 UNK         0.0809 
     93 H93        26.3781   30.3404   -0.6804 H         1 UNK         0.0809 
     94 H94        24.1748   27.0148    0.1834 H         1 UNK         0.2990 
     95 H95        24.7006   24.5684    0.2754 H         1 UNK         0.0690 
     96 H96        23.7303   23.9505   -1.9789 H         1 UNK         0.0788 
     97 H97        24.6554   25.2504   -2.7284 H         1 UNK         0.0788 
     98 H98        23.3880   25.6203   -1.5677 H         1 UNK         0.0788 
     99 H99        26.5682   23.8797   -1.9260 H         1 UNK         0.2993 
    100 H100       28.9139   22.3434    0.2372 H         1 UNK         0.0949 
    101 H101       27.7865   22.1331   -2.6263 H         1 UNK         0.0767 
    102 H102       29.2140   21.3208   -1.9956 H         1 UNK         0.0767 
    103 H103       27.6247   20.8729   -1.4085 H         1 UNK         0.0767 
    104 H104       28.4498   24.8348   -0.9519 H         1 UNK         0.3013 
    105 H105       29.3980   28.3890    4.3105 H         1 UNK         0.3121 
    106 H106       30.5266   30.0150    5.2465 H         1 UNK         0.0774 
    107 H107       29.6408   31.4062    7.0370 H         1 UNK         0.0815 
    108 H108       27.9837   31.0751    6.5691 H         1 UNK         0.0815 
    109 H109       28.9910   29.7877    7.2289 H         1 UNK         0.0815 
    110 H110       28.4483   30.5480    2.7700 H         1 UNK         0.2987 
    111 H111       29.0997   33.4573    2.4828 H         1 UNK         0.0949 
    112 H112       27.2247   33.4761    0.8532 H         1 UNK         0.0806 
    113 H113       26.9027   31.7772    1.1675 H         1 UNK         0.0806 
    114 H114       26.6794   32.9675    2.4436 H         1 UNK         0.0806 
    115 H115       28.9684   30.3234    0.6750 H         1 UNK         0.3010 
    116 H116       30.4998   31.3930   -1.5534 H         1 UNK         0.0829 
    117 H117       28.9532   29.6776   -2.1059 H         1 UNK         0.0813 
    118 H118       30.5200   28.9067   -2.2360 H         1 UNK         0.0813 
    119 H119       29.5102   28.6042   -0.8256 H         1 UNK         0.0813 
    120 H120       31.3536   29.6753    1.4409 H         1 UNK         0.3038 
    121 H121       34.0828   30.4732    1.1882 H         1 UNK         0.0769 
    122 H122       33.4967   27.4488    1.1986 H         1 UNK         0.0811 
    123 H123       35.0819   28.1856    1.3400 H         1 UNK         0.0811 
    124 H124       34.1923   28.3236   -0.1662 H         1 UNK         0.0811 
    125 H125       35.2140   30.0219    3.2008 H         1 UNK         0.3204 
    126 H126       33.4751   29.9478    5.5822 H         1 UNK         0.0748 
    127 H127       35.5867   30.5702    6.7583 H         1 UNK         0.0771 
    128 H128       36.5062   30.3739    5.2728 H         1 UNK         0.0771 
    129 H129       35.3066   31.6591    5.4123 H         1 UNK         0.0771 
    130 H130       34.1020   28.5323    7.4002 H         1 UNK         0.2980 
    131 H131       35.5077   26.0433    6.7412 H         1 UNK         0.0545 
    132 H132       36.0892   27.5897   10.2422 H         1 UNK         0.3459 
    133 H133       35.7585   28.4786    8.7808 H         1 UNK         0.3459 
    134 H134       33.6525   24.5949    7.4493 H         1 UNK         0.0616 
    135 H135       33.2427   25.5087    6.0383 H         1 UNK         0.0616 
    136 H136       31.7793   27.8742    6.2159 H         1 UNK         0.0634 
    137 H137       30.2998   27.7266    7.1208 H         1 UNK         0.0634 
@<TRIPOS>BOND
     1    1    2 1    
     2    1   72 1    
     3    1   73 1    
     4    1   74 1    
     5    2    3 2    
     6    2    4 am   BACKBONE|DICT|INTERRES
     7    4    5 1    
     8    4   75 1    
     9    5    6 1    
    10    5   35 1    
    11    5   76 1    
    12    6    7 1    
    13    6   77 1    
    14    6   78 1    
    15    7    8 1    
    16    8    9 1    
    17    8   79 1    
    18    8   80 1    
    19    9   10 ar   
    20    9   14 ar   
    21   10   11 ar   
    22   10   81 1    
    23   11   12 ar   
    24   11   71 1    
    25   12   13 ar   
    26   12   82 1    
    27   13   14 ar   
    28   13   15 1    
    29   14   83 1    
    30   15   16 1    
    31   15   84 1    
    32   15   85 1    
    33   16   17 1    
    34   17   18 1    
    35   17   86 1    
    36   17   87 1    
    37   18   19 1    
    38   18   37 1    
    39   18   88 1    
    40   19   20 am   BACKBONE|DICT|INTERRES
    41   19   89 1    
    42   20   21 2    
    43   20   22 1    
    44   22   23 1    
    45   22   24 1    
    46   22   90 1    
    47   23   91 1    
    48   23   92 1    
    49   23   93 1    
    50   24   25 am   BACKBONE|DICT|INTERRES
    51   24   94 1    
    52   25   26 2    
    53   25   27 1    
    54   27   28 1    
    55   27   29 1    
    56   27   95 1    
    57   28   96 1    
    58   28   97 1    
    59   28   98 1    
    60   29   30 am   BACKBONE|DICT|INTERRES
    61   29   99 1    
    62   30   31 2    
    63   30   32 1    
    64   32   33 1    
    65   32   34 1    
    66   32  100 1    
    67   33  101 1    
    68   33  102 1    
    69   33  103 1    
    70   34   35 am   BACKBONE|DICT|INTERRES
    71   34  104 1    
    72   35   36 2    
    73   37   38 2    
    74   37   39 am   BACKBONE|DICT|INTERRES
    75   39   40 1    
    76   39  105 1    
    77   40   41 1    
    78   40   42 1    
    79   40  106 1    
    80   41  107 1    
    81   41  108 1    
    82   41  109 1    
    83   42   43 2    
    84   42   44 am   BACKBONE|DICT|INTERRES
    85   44   45 1    
    86   44  110 1    
    87   45   46 1    
    88   45   47 1    
    89   45  111 1    
    90   46  112 1    
    91   46  113 1    
    92   46  114 1    
    93   47   48 2    
    94   47   49 am   BACKBONE|DICT|INTERRES
    95   49   50 1    
    96   49  115 1    
    97   50   51 1    
    98   50   52 1    
    99   50  116 1    
   100   51  117 1    
   101   51  118 1    
   102   51  119 1    
   103   52   53 2    
   104   52   54 am   BACKBONE|DICT|INTERRES
   105   54   55 1    
   106   54  120 1    
   107   55   56 1    
   108   55   57 1    
   109   55  121 1    
   110   56  122 1    
   111   56  123 1    
   112   56  124 1    
   113   57   58 2    
   114   57   59 am   BACKBONE|DICT|INTERRES
   115   59   60 1    
   116   59  125 1    
   117   60   61 1    
   118   60   62 1    
   119   60  126 1    
   120   61  127 1    
   121   61  128 1    
   122   61  129 1    
   123   62   63 2    
   124   62   64 am   BACKBONE|DICT|INTERRES
   125   64   65 1    
   126   64  130 1    
   127   65   66 1    
   128   65   69 1    
   129   65  131 1    
   130   66   67 am   BACKBONE|DICT|INTERRES
   131   66   68 2    
   132   67  132 1    
   133   67  133 1    
   134   69   70 1    
   135   69  134 1    
   136   69  135 1    
   137   70   71 1    
   138   71  136 1    
   139   71  137 1    
@<TRIPOS>SUBSTRUCTURE
     1 UNK         1 GROUP             0       ****    0 ROOT    
