@<TRIPOS>MOLECULE
3R136
137   139    1
SMALL
USER_CHARGES


@<TRIPOS>ATOM
      1 CA         32.7176   18.8239    1.2409 C.3       0 UNK        -0.1979 
      2 C          31.9359   20.1239    1.1302 C.2       0 UNK         0.4864 
      3 O          32.5334   21.2008    1.1344 O.2       0 UNK        -0.5359 
      4 N          30.6050   20.0357    1.0070 N.am      1 UNK        -0.4318 
      5 CA         29.6487   21.1540    0.9528 C.3       1 UNK         0.0824 
      6 C6         28.2179   20.6878    1.3409 C.3       12 UNK        -0.0944 
      7 S7         28.1622   19.8301    2.9529 S.3       12 UNK        -0.2672 
      8 C8         27.0915   20.9284    3.9406 C.3       12 UNK         0.0333 
      9 C9         27.6531   22.3330    4.1483 C.ar      12 UNK        -0.0807 
     10 C10        29.0069   22.5413    4.4379 C.ar      12 UNK        -0.0894 
     11 C11        29.4999   23.8321    4.6482 C.ar      12 UNK        -0.0804 
     12 C12        28.6268   24.9218    4.5886 C.ar      12 UNK        -0.0824 
     13 C13        27.2682   24.7263    4.3237 C.ar      12 UNK        -0.0762 
     14 C14        26.7902   23.4327    4.0945 C.ar      12 UNK        -0.0782 
     15 C15        26.3111   25.9078    4.3244 C.3       12 UNK         0.0230 
     16 S16        26.2391   26.7105    2.6917 S.3       12 UNK        -0.2608 
     17 C17        26.5147   28.4618    3.1287 C.3       12 UNK        -0.0989 
     18 CA         27.9900   28.8831    2.8880 C.3       5 UNK         0.0716 
     19 N          28.4572   28.8085    1.4983 N.am      5 UNK        -0.4135 
     20 C          27.8664   29.2467    0.3771 C.2       4 UNK         0.5031 
     21 O          26.7335   29.7271    0.3219 O.2       4 UNK        -0.5229 
     22 CA         28.6853   29.1476   -0.9270 C.3       4 UNK         0.0329 
     23 CB         29.0887   30.5445   -1.4249 C.3       4 UNK        -0.2001 
     24 N          29.8933   28.3239   -0.8133 N.am      4 UNK        -0.4303 
     25 C          29.9029   26.9856   -0.7861 C.2       3 UNK         0.5044 
     26 O          28.8844   26.2921   -0.8360 O.2       3 UNK        -0.5152 
     27 CA         31.2905   26.3317   -0.6545 C.3       3 UNK         0.0319 
     28 CB         31.8673   26.5477    0.7520 C.3       3 UNK        -0.2001 
     29 N          31.2583   24.8945   -0.9275 N.am      3 UNK        -0.4354 
     30 C          31.1300   24.3469   -2.1438 C.2       2 UNK         0.4964 
     31 O          31.0602   25.0033   -3.1843 O.2       2 UNK        -0.5047 
     32 CA         31.1059   22.8107   -2.2293 C.3       2 UNK         0.0288 
     33 CB         32.4333   22.2843   -2.8015 C.3       2 UNK        -0.2113 
     34 N          30.8682   22.1660   -0.9357 N.am      2 UNK        -0.4145 
     35 C          29.6674   21.8879   -0.4135 C.2       1 UNK         0.5006 
     36 O          28.6094   22.1651   -0.9823 O.2       1 UNK        -0.5103 
     37 C          28.3279   30.2572    3.4928 C.2       5 UNK         0.5055 
     38 O          28.5290   31.2291    2.7613 O.2       5 UNK        -0.5220 
     39 N          28.4307   30.3006    4.8297 N.am      6 UNK        -0.4450 
     40 CA         29.0228   31.3829    5.6322 C.3       6 UNK         0.0367 
     41 CB         28.9573   30.9929    7.1179 C.3       6 UNK        -0.1929 
     42 C          28.4602   32.8022    5.4247 C.2       6 UNK         0.5070 
     43 O          29.1392   33.7677    5.7745 O.2       6 UNK        -0.5237 
     44 N          27.2605   32.9184    4.8420 N.am      7 UNK        -0.4739 
     45 CA         26.6769   34.1837    4.3886 C.3       7 UNK         0.0276 
     46 CB         25.2000   33.9512    4.0303 C.3       7 UNK        -0.1927 
     47 C          27.4255   34.8171    3.1963 C.2       7 UNK         0.5013 
     48 O          27.2971   36.0252    2.9918 O.2       7 UNK        -0.5193 
     49 N          28.1744   34.0068    2.4351 N.am      8 UNK        -0.4253 
     50 CA         28.9438   34.4173    1.2617 C.3       8 UNK         0.0242 
     51 CB         28.2674   33.8693   -0.0054 C.3       8 UNK        -0.2000 
     52 C          30.4082   33.9626    1.3560 C.2       8 UNK         0.4948 
     53 O          31.2996   34.7970    1.1924 O.2       8 UNK        -0.5275 
     54 N          30.6426   32.6703    1.6213 N.am      9 UNK        -0.4246 
     55 CA         31.9651   32.0561    1.7394 C.3       9 UNK         0.0261 
     56 CB         32.6589   31.9550    0.3654 C.3       9 UNK        -0.1959 
     57 C          31.8043   30.6674    2.3649 C.2       9 UNK         0.5033 
     58 O          31.1800   29.7997    1.7505 O.2       9 UNK        -0.5390 
     59 N          32.3531   30.4822    3.5710 N.am      10 UNK        -0.4215 
     60 CA         32.3570   29.2095    4.2979 C.3       10 UNK         0.0240 
     61 CB         32.6369   29.4915    5.7853 C.3       10 UNK        -0.1982 
     62 C          33.3951   28.2220    3.7324 C.2       10 UNK         0.4970 
     63 O          34.2793   28.6198    2.9701 O.2       10 UNK        -0.4916 
     64 N          33.2845   26.9548    4.1521 N.am      11 UNK        -0.4279 
     65 CA         34.1974   25.8591    3.7761 C.3       11 UNK         0.1003 
     66 C          35.6502   25.9930    4.3230 C.2       11 UNK         0.5709 
     67 N          35.9149   26.8347    5.3157 N.am      11 UNK        -0.7358 
     68 O          36.5541   25.3200    3.8334 O.2       11 UNK        -0.4999 
     69 C69        33.6172   24.4639    4.1356 C.3       12 UNK        -0.0954 
     70 S70        31.9585   24.1553    3.4412 S.3       12 UNK        -0.2268 
     71 C71        30.9712   24.0445    4.9623 C.3       12 UNK         0.0203 
     72 H72        33.2817   18.8053    2.1730 H         1 UNK         0.0888 
     73 H73        32.0638   17.9521    1.2227 H         1 UNK         0.0888 
     74 H74        33.4219   18.7382    0.4139 H         1 UNK         0.0888 
     75 H75        30.1792   19.1198    0.9937 H         1 UNK         0.3017 
     76 H76        29.9634   21.8926    1.6936 H         1 UNK         0.0873 
     77 H77        27.5345   21.5389    1.3666 H         1 UNK         0.0745 
     78 H78        27.8212   20.0052    0.5869 H         1 UNK         0.0745 
     79 H79        26.9352   20.4718    4.9187 H         1 UNK         0.0705 
     80 H80        26.1120   20.9724    3.4616 H         1 UNK         0.0705 
     81 H81        29.6821   21.6985    4.4972 H         1 UNK         0.1334 
     82 H82        29.0018   25.9210    4.7616 H         1 UNK         0.1417 
     83 H83        25.7384   23.2825    3.8906 H         1 UNK         0.1562 
     84 H84        26.6207   26.6138    5.0957 H         1 UNK         0.0748 
     85 H85        25.3069   25.5840    4.6022 H         1 UNK         0.0748 
     86 H86        26.2240   28.6207    4.1681 H         1 UNK         0.0940 
     87 H87        25.8253   29.0794    2.5529 H         1 UNK         0.0940 
     88 H88        28.6214   28.1699    3.4202 H         1 UNK         0.0703 
     89 H89        29.4418   28.5887    1.4094 H         1 UNK         0.3081 
     90 H90        28.0362   28.6960   -1.6804 H         1 UNK         0.0719 
     91 H91        29.6897   31.0746   -0.6858 H         1 UNK         0.0809 
     92 H92        29.6617   30.4900   -2.3506 H         1 UNK         0.0809 
     93 H93        28.2063   31.1514   -1.6304 H         1 UNK         0.0809 
     94 H94        30.7666   28.8207   -0.7014 H         1 UNK         0.2990 
     95 H95        31.9609   26.7981   -1.3798 H         1 UNK         0.0690 
     96 H96        32.7710   25.9586    0.9044 H         1 UNK         0.0788 
     97 H97        31.1520   26.2786    1.5302 H         1 UNK         0.0788 
     98 H98        32.1437   27.5897    0.9053 H         1 UNK         0.0788 
     99 H99        31.2777   24.2811   -0.1267 H         1 UNK         0.2993 
    100 H100       30.3044   22.5372   -2.9193 H         1 UNK         0.0949 
    101 H101       33.2764   22.5274   -2.1533 H         1 UNK         0.0767 
    102 H102       32.4083   21.2016   -2.9275 H         1 UNK         0.0767 
    103 H103       32.6377   22.7187   -3.7812 H         1 UNK         0.0767 
    104 H104       31.6828   21.9094   -0.3814 H         1 UNK         0.3013 
    105 H105       28.2106   29.4609    5.3455 H         1 UNK         0.3121 
    106 H106       30.0739   31.4379    5.3442 H         1 UNK         0.0774 
    107 H107       29.4243   31.7541    7.7448 H         1 UNK         0.0815 
    108 H108       27.9273   30.8788    7.4582 H         1 UNK         0.0815 
    109 H109       29.4821   30.0568    7.3095 H         1 UNK         0.0815 
    110 H110       26.7764   32.0717    4.5812 H         1 UNK         0.2987 
    111 H111       26.7230   34.8954    5.2160 H         1 UNK         0.0949 
    112 H112       24.7236   34.8812    3.7165 H         1 UNK         0.0806 
    113 H113       25.0907   33.2375    3.2125 H         1 UNK         0.0806 
    114 H114       24.6379   33.5741    4.8848 H         1 UNK         0.0806 
    115 H115       28.2301   33.0211    2.6852 H         1 UNK         0.3010 
    116 H116       28.9612   35.5068    1.1858 H         1 UNK         0.0829 
    117 H117       27.3116   34.3627   -0.1822 H         1 UNK         0.0813 
    118 H118       28.8857   34.0304   -0.8896 H         1 UNK         0.0813 
    119 H119       28.0741   32.8002    0.0782 H         1 UNK         0.0813 
    120 H120       29.8605   32.0450    1.8145 H         1 UNK         0.3038 
    121 H121       32.5779   32.6759    2.3973 H         1 UNK         0.0769 
    122 H122       33.6213   31.4491    0.4535 H         1 UNK         0.0811 
    123 H123       32.8518   32.9382   -0.0631 H         1 UNK         0.0811 
    124 H124       32.0604   31.3907   -0.3497 H         1 UNK         0.0811 
    125 H125       32.8879   31.2339    3.9811 H         1 UNK         0.3204 
    126 H126       31.3677   28.7556    4.2058 H         1 UNK         0.0748 
    127 H127       32.5784   28.5800    6.3813 H         1 UNK         0.0771 
    128 H128       33.6310   29.9151    5.9353 H         1 UNK         0.0771 
    129 H129       31.9130   30.1894    6.2045 H         1 UNK         0.0771 
    130 H130       32.5413   26.7071    4.7864 H         1 UNK         0.2980 
    131 H131       34.2958   25.8962    2.6903 H         1 UNK         0.0545 
    132 H132       36.8602   26.9122    5.6564 H         1 UNK         0.3459 
    133 H133       35.1833   27.3915    5.7251 H         1 UNK         0.3459 
    134 H134       33.5896   24.3336    5.2190 H         1 UNK         0.0616 
    135 H135       34.2703   23.6754    3.7566 H         1 UNK         0.0616 
    136 H136       31.1044   24.9534    5.5508 H         1 UNK         0.0634 
    137 H137       31.3429   23.2211    5.5743 H         1 UNK         0.0634 
@<TRIPOS>BOND
     1    1    2 1    
     2    1   72 1    
     3    1   73 1    
     4    1   74 1    
     5    2    3 2    
     6    2    4 am   BACKBONE|DICT|INTERRES
     7    4    5 1    
     8    4   75 1    
     9    5    6 1    
    10    5   35 1    
    11    5   76 1    
    12    6    7 1    
    13    6   77 1    
    14    6   78 1    
    15    7    8 1    
    16    8    9 1    
    17    8   79 1    
    18    8   80 1    
    19    9   10 ar   
    20    9   14 ar   
    21   10   11 ar   
    22   10   81 1    
    23   11   12 ar   
    24   11   71 1    
    25   12   13 ar   
    26   12   82 1    
    27   13   14 ar   
    28   13   15 1    
    29   14   83 1    
    30   15   16 1    
    31   15   84 1    
    32   15   85 1    
    33   16   17 1    
    34   17   18 1    
    35   17   86 1    
    36   17   87 1    
    37   18   19 1    
    38   18   37 1    
    39   18   88 1    
    40   19   20 am   BACKBONE|DICT|INTERRES
    41   19   89 1    
    42   20   21 2    
    43   20   22 1    
    44   22   23 1    
    45   22   24 1    
    46   22   90 1    
    47   23   91 1    
    48   23   92 1    
    49   23   93 1    
    50   24   25 am   BACKBONE|DICT|INTERRES
    51   24   94 1    
    52   25   26 2    
    53   25   27 1    
    54   27   28 1    
    55   27   29 1    
    56   27   95 1    
    57   28   96 1    
    58   28   97 1    
    59   28   98 1    
    60   29   30 am   BACKBONE|DICT|INTERRES
    61   29   99 1    
    62   30   31 2    
    63   30   32 1    
    64   32   33 1    
    65   32   34 1    
    66   32  100 1    
    67   33  101 1    
    68   33  102 1    
    69   33  103 1    
    70   34   35 am   BACKBONE|DICT|INTERRES
    71   34  104 1    
    72   35   36 2    
    73   37   38 2    
    74   37   39 am   BACKBONE|DICT|INTERRES
    75   39   40 1    
    76   39  105 1    
    77   40   41 1    
    78   40   42 1    
    79   40  106 1    
    80   41  107 1    
    81   41  108 1    
    82   41  109 1    
    83   42   43 2    
    84   42   44 am   BACKBONE|DICT|INTERRES
    85   44   45 1    
    86   44  110 1    
    87   45   46 1    
    88   45   47 1    
    89   45  111 1    
    90   46  112 1    
    91   46  113 1    
    92   46  114 1    
    93   47   48 2    
    94   47   49 am   BACKBONE|DICT|INTERRES
    95   49   50 1    
    96   49  115 1    
    97   50   51 1    
    98   50   52 1    
    99   50  116 1    
   100   51  117 1    
   101   51  118 1    
   102   51  119 1    
   103   52   53 2    
   104   52   54 am   BACKBONE|DICT|INTERRES
   105   54   55 1    
   106   54  120 1    
   107   55   56 1    
   108   55   57 1    
   109   55  121 1    
   110   56  122 1    
   111   56  123 1    
   112   56  124 1    
   113   57   58 2    
   114   57   59 am   BACKBONE|DICT|INTERRES
   115   59   60 1    
   116   59  125 1    
   117   60   61 1    
   118   60   62 1    
   119   60  126 1    
   120   61  127 1    
   121   61  128 1    
   122   61  129 1    
   123   62   63 2    
   124   62   64 am   BACKBONE|DICT|INTERRES
   125   64   65 1    
   126   64  130 1    
   127   65   66 1    
   128   65   69 1    
   129   65  131 1    
   130   66   67 am   BACKBONE|DICT|INTERRES
   131   66   68 2    
   132   67  132 1    
   133   67  133 1    
   134   69   70 1    
   135   69  134 1    
   136   69  135 1    
   137   70   71 1    
   138   71  136 1    
   139   71  137 1    
@<TRIPOS>SUBSTRUCTURE
     1 UNK         1 GROUP             0       ****    0 ROOT    
