@<TRIPOS>MOLECULE
3R136
137   139    1
SMALL
USER_CHARGES


@<TRIPOS>ATOM
      1 CA         30.3442   22.5475    3.5618 C.3       0 UNK        -0.1979 
      2 C          29.8670   21.3002    2.8432 C.2       0 UNK         0.4864 
      3 O          29.4007   20.3589    3.4875 O.2       0 UNK        -0.5359 
      4 N          29.9496   21.2877    1.5060 N.am      1 UNK        -0.4318 
      5 CA         29.5263   20.1783    0.6433 C.3       1 UNK         0.0824 
      6 C6         30.3706   20.1077   -0.6590 C.3       12 UNK        -0.0944 
      7 S7         30.2776   21.5633   -1.7627 S.3       12 UNK        -0.2672 
      8 C8         31.7473   22.5505   -1.3160 C.3       12 UNK         0.0333 
      9 C9         31.3687   23.8106   -0.5469 C.ar      12 UNK        -0.0807 
     10 C10        31.9449   24.0904    0.6979 C.ar      12 UNK        -0.0894 
     11 C11        31.5854   25.2452    1.4024 C.ar      12 UNK        -0.0804 
     12 C12        30.6411   26.1142    0.8482 C.ar      12 UNK        -0.0824 
     13 C13        30.0651   25.8573   -0.3965 C.ar      12 UNK        -0.0762 
     14 C14        30.4464   24.7099   -1.0949 C.ar      12 UNK        -0.0782 
     15 C15        28.9760   26.7667   -0.9517 C.3       12 UNK         0.0230 
     16 S16        29.5895   28.3317   -1.6618 S.3       12 UNK        -0.2608 
     17 C17        30.1038   29.3675   -0.2445 C.3       12 UNK        -0.0989 
     18 CA         28.9324   29.8848    0.6404 C.3       5 UNK         0.0716 
     19 N          28.5463   28.9113    1.6609 N.am      5 UNK        -0.4135 
     20 C          27.3050   28.4600    1.8623 C.2       4 UNK         0.5031 
     21 O          26.3119   28.8586    1.2491 O.2       4 UNK        -0.5229 
     22 CA         27.1471   27.3225    2.8762 C.3       4 UNK         0.0329 
     23 CB         26.4228   27.7987    4.1460 C.3       4 UNK        -0.2001 
     24 N          26.3666   26.2777    2.2174 N.am      4 UNK        -0.4303 
     25 C          26.7013   24.9854    2.1491 C.2       3 UNK         0.5044 
     26 O          27.6485   24.4791    2.7551 O.2       3 UNK        -0.5152 
     27 CA         25.8485   24.1140    1.2180 C.3       3 UNK         0.0319 
     28 CB         26.2060   24.3766   -0.2583 C.3       3 UNK        -0.2001 
     29 N          26.0936   22.7127    1.5423 N.am      3 UNK        -0.4354 
     30 C          25.3025   21.6757    1.2422 C.2       2 UNK         0.4964 
     31 O          24.2300   21.7862    0.6450 O.2       2 UNK        -0.5047 
     32 CA         25.7991   20.2861    1.6950 C.3       2 UNK         0.0288 
     33 CB         25.0519   19.1183    1.0143 C.3       2 UNK        -0.2113 
     34 N          27.2551   20.1387    1.5619 N.am      2 UNK        -0.4145 
     35 C          27.9903   20.1763    0.4386 C.2       1 UNK         0.5006 
     36 O          27.5066   20.2293   -0.6933 O.2       1 UNK        -0.5103 
     37 C          29.3478   31.1634    1.3793 C.2       5 UNK         0.5055 
     38 O          30.1960   31.0943    2.2743 O.2       5 UNK        -0.5220 
     39 N          28.7932   32.3107    0.9656 N.am      6 UNK        -0.4450 
     40 CA         29.1359   33.6363    1.4944 C.3       6 UNK         0.0367 
     41 CB         28.1679   34.6871    0.9288 C.3       6 UNK        -0.1929 
     42 C          30.5938   34.0333    1.2072 C.2       6 UNK         0.5070 
     43 O          31.2331   34.6494    2.0583 O.2       6 UNK        -0.5237 
     44 N          31.1177   33.6072    0.0483 N.am      7 UNK        -0.4739 
     45 CA         32.5214   33.7653   -0.3512 C.3       7 UNK         0.0276 
     46 CB         32.6760   33.3407   -1.8205 C.3       7 UNK        -0.1927 
     47 C          33.5110   32.9876    0.5389 C.2       7 UNK         0.5013 
     48 O          34.6790   33.3691    0.6143 O.2       7 UNK        -0.5193 
     49 N          33.0233   31.9334    1.2074 N.am      8 UNK        -0.4253 
     50 CA         33.7567   31.1446    2.1977 C.3       8 UNK         0.0242 
     51 CB         33.4266   29.6550    1.9832 C.3       8 UNK        -0.2000 
     52 C          33.4232   31.5764    3.6387 C.2       8 UNK         0.4948 
     53 O          33.8382   30.8863    4.5698 O.2       8 UNK        -0.5275 
     54 N          32.6505   32.6630    3.8110 N.am      9 UNK        -0.4246 
     55 CA         32.1306   33.1916    5.0790 C.3       9 UNK         0.0261 
     56 CB         33.2757   33.7750    5.9344 C.3       9 UNK        -0.1959 
     57 C          31.2665   32.1689    5.8454 C.2       9 UNK         0.5033 
     58 O          31.3778   32.0688    7.0686 O.2       9 UNK        -0.5390 
     59 N          30.4409   31.4145    5.1011 N.am      10 UNK        -0.4215 
     60 CA         29.6358   30.2733    5.5539 C.3       10 UNK         0.0240 
     61 CB         28.5507   30.7047    6.5639 C.3       10 UNK        -0.1982 
     62 C          30.5109   29.1029    6.0464 C.2       10 UNK         0.4970 
     63 O          30.1929   28.4734    7.0566 O.2       10 UNK        -0.4916 
     64 N          31.5889   28.8376    5.2964 N.am      11 UNK        -0.4279 
     65 CA         32.5904   27.7851    5.5306 C.3       11 UNK         0.1003 
     66 C          33.4619   28.0595    6.7892 C.2       11 UNK         0.5709 
     67 N          33.9939   29.2665    6.9285 N.am      11 UNK        -0.7358 
     68 O          33.6688   27.1909    7.6343 O.2       11 UNK        -0.4999 
     69 C69        32.0155   26.3393    5.4702 C.3       12 UNK        -0.0954 
     70 S70        30.9761   26.0346    4.0048 S.3       12 UNK        -0.2268 
     71 C71        32.2174   25.5596    2.7561 C.3       12 UNK         0.0203 
     72 H72        31.4201   22.5083    3.7272 H         1 UNK         0.0888 
     73 H73        30.1098   23.4343    2.9763 H         1 UNK         0.0888 
     74 H74        29.8497   22.6510    4.5272 H         1 UNK         0.0888 
     75 H75        30.2875   22.1061    1.0174 H         1 UNK         0.3017 
     76 H76        29.7395   19.2485    1.1760 H         1 UNK         0.0873 
     77 H77        31.4147   19.9212   -0.4046 H         1 UNK         0.0745 
     78 H78        30.0655   19.2371   -1.2424 H         1 UNK         0.0745 
     79 H79        32.2583   22.8458   -2.2334 H         1 UNK         0.0705 
     80 H80        32.4586   21.9441   -0.7539 H         1 UNK         0.0705 
     81 H81        32.6732   23.4105    1.1190 H         1 UNK         0.1334 
     82 H82        30.3428   26.9851    1.4056 H         1 UNK         0.1417 
     83 H83        30.0014   24.4957   -2.0574 H         1 UNK         0.1562 
     84 H84        28.2278   26.9577   -0.1892 H         1 UNK         0.0748 
     85 H85        28.4370   26.2438   -1.7431 H         1 UNK         0.0748 
     86 H86        30.6307   30.2093   -0.6993 H         1 UNK         0.0940 
     87 H87        30.8656   28.8550    0.3413 H         1 UNK         0.0940 
     88 H88        28.0850   30.1224   -0.0066 H         1 UNK         0.0703 
     89 H89        29.2888   28.6036    2.2708 H         1 UNK         0.3081 
     90 H90        28.1347   26.9454    3.1511 H         1 UNK         0.0719 
     91 H91        25.4299   28.1913    3.9228 H         1 UNK         0.0809 
     92 H92        26.3072   26.9839    4.8609 H         1 UNK         0.0809 
     93 H93        26.9834   28.5899    4.6441 H         1 UNK         0.0809 
     94 H94        25.6015   26.6201    1.6503 H         1 UNK         0.2990 
     95 H95        24.7958   24.3452    1.3940 H         1 UNK         0.0690 
     96 H96        27.2526   24.1452   -0.4624 H         1 UNK         0.0788 
     97 H97        25.5961   23.7718   -0.9296 H         1 UNK         0.0788 
     98 H98        26.0401   25.4202   -0.5278 H         1 UNK         0.0788 
     99 H99        26.9384   22.5652    2.0807 H         1 UNK         0.2993 
    100 H100       25.5859   20.2289    2.7636 H         1 UNK         0.0949 
    101 H101       25.1530   19.1474   -0.0710 H         1 UNK         0.0767 
    102 H102       25.4236   18.1539    1.3608 H         1 UNK         0.0767 
    103 H103       23.9854   19.1535    1.2404 H         1 UNK         0.0767 
    104 H104       27.7778   20.1005    2.4341 H         1 UNK         0.3013 
    105 H105       28.1009   32.2823    0.2299 H         1 UNK         0.3121 
    106 H106       29.0115   33.6060    2.5793 H         1 UNK         0.0774 
    107 H107       28.3934   35.6778    1.3263 H         1 UNK         0.0815 
    108 H108       28.2275   34.7515   -0.1584 H         1 UNK         0.0815 
    109 H109       27.1356   34.4611    1.1967 H         1 UNK         0.0815 
    110 H110       30.5138   33.1199   -0.5979 H         1 UNK         0.2987 
    111 H111       32.7761   34.8244   -0.2688 H         1 UNK         0.0949 
    112 H112       33.7049   33.4731   -2.1587 H         1 UNK         0.0806 
    113 H113       32.4176   32.2913   -1.9683 H         1 UNK         0.0806 
    114 H114       32.0434   33.9394   -2.4762 H         1 UNK         0.0806 
    115 H115       32.0390   31.7209    1.1172 H         1 UNK         0.3010 
    116 H116       34.8318   31.2781    2.0613 H         1 UNK         0.0829 
    117 H117       33.6211   29.3488    0.9552 H         1 UNK         0.0813 
    118 H118       34.0409   29.0229    2.6253 H         1 UNK         0.0813 
    119 H119       32.3834   29.4324    2.2077 H         1 UNK         0.0813 
    120 H120       32.3526   33.1764    2.9885 H         1 UNK         0.3038 
    121 H121       31.4634   34.0141    4.8171 H         1 UNK         0.0769 
    122 H122       32.8852   34.2806    6.8183 H         1 UNK         0.0811 
    123 H123       33.8557   34.5076    5.3733 H         1 UNK         0.0811 
    124 H124       33.9592   32.9987    6.2799 H         1 UNK         0.0811 
    125 H125       30.4436   31.5533    4.0922 H         1 UNK         0.3204 
    126 H126       29.1200   29.9047    4.6665 H         1 UNK         0.0748 
    127 H127       27.8754   29.8778    6.7870 H         1 UNK         0.0771 
    128 H128       28.9815   31.0327    7.5102 H         1 UNK         0.0771 
    129 H129       27.9445   31.5202    6.1697 H         1 UNK         0.0771 
    130 H130       31.8017   29.4654    4.5368 H         1 UNK         0.2980 
    131 H131       33.2879   27.8669    4.6969 H         1 UNK         0.0545 
    132 H132       34.5607   29.4728    7.7347 H         1 UNK         0.3459 
    133 H133       33.8764   29.9600    6.1930 H         1 UNK         0.3459 
    134 H134       32.8233   25.6057    5.4870 H         1 UNK         0.0616 
    135 H135       31.4067   26.1362    6.3524 H         1 UNK         0.0616 
    136 H136       32.9310   26.3747    2.6304 H         1 UNK         0.0634 
    137 H137       32.7789   24.7010    3.1270 H         1 UNK         0.0634 
@<TRIPOS>BOND
     1    1    2 1    
     2    1   72 1    
     3    1   73 1    
     4    1   74 1    
     5    2    3 2    
     6    2    4 am   BACKBONE|DICT|INTERRES
     7    4    5 1    
     8    4   75 1    
     9    5    6 1    
    10    5   35 1    
    11    5   76 1    
    12    6    7 1    
    13    6   77 1    
    14    6   78 1    
    15    7    8 1    
    16    8    9 1    
    17    8   79 1    
    18    8   80 1    
    19    9   10 ar   
    20    9   14 ar   
    21   10   11 ar   
    22   10   81 1    
    23   11   12 ar   
    24   11   71 1    
    25   12   13 ar   
    26   12   82 1    
    27   13   14 ar   
    28   13   15 1    
    29   14   83 1    
    30   15   16 1    
    31   15   84 1    
    32   15   85 1    
    33   16   17 1    
    34   17   18 1    
    35   17   86 1    
    36   17   87 1    
    37   18   19 1    
    38   18   37 1    
    39   18   88 1    
    40   19   20 am   BACKBONE|DICT|INTERRES
    41   19   89 1    
    42   20   21 2    
    43   20   22 1    
    44   22   23 1    
    45   22   24 1    
    46   22   90 1    
    47   23   91 1    
    48   23   92 1    
    49   23   93 1    
    50   24   25 am   BACKBONE|DICT|INTERRES
    51   24   94 1    
    52   25   26 2    
    53   25   27 1    
    54   27   28 1    
    55   27   29 1    
    56   27   95 1    
    57   28   96 1    
    58   28   97 1    
    59   28   98 1    
    60   29   30 am   BACKBONE|DICT|INTERRES
    61   29   99 1    
    62   30   31 2    
    63   30   32 1    
    64   32   33 1    
    65   32   34 1    
    66   32  100 1    
    67   33  101 1    
    68   33  102 1    
    69   33  103 1    
    70   34   35 am   BACKBONE|DICT|INTERRES
    71   34  104 1    
    72   35   36 2    
    73   37   38 2    
    74   37   39 am   BACKBONE|DICT|INTERRES
    75   39   40 1    
    76   39  105 1    
    77   40   41 1    
    78   40   42 1    
    79   40  106 1    
    80   41  107 1    
    81   41  108 1    
    82   41  109 1    
    83   42   43 2    
    84   42   44 am   BACKBONE|DICT|INTERRES
    85   44   45 1    
    86   44  110 1    
    87   45   46 1    
    88   45   47 1    
    89   45  111 1    
    90   46  112 1    
    91   46  113 1    
    92   46  114 1    
    93   47   48 2    
    94   47   49 am   BACKBONE|DICT|INTERRES
    95   49   50 1    
    96   49  115 1    
    97   50   51 1    
    98   50   52 1    
    99   50  116 1    
   100   51  117 1    
   101   51  118 1    
   102   51  119 1    
   103   52   53 2    
   104   52   54 am   BACKBONE|DICT|INTERRES
   105   54   55 1    
   106   54  120 1    
   107   55   56 1    
   108   55   57 1    
   109   55  121 1    
   110   56  122 1    
   111   56  123 1    
   112   56  124 1    
   113   57   58 2    
   114   57   59 am   BACKBONE|DICT|INTERRES
   115   59   60 1    
   116   59  125 1    
   117   60   61 1    
   118   60   62 1    
   119   60  126 1    
   120   61  127 1    
   121   61  128 1    
   122   61  129 1    
   123   62   63 2    
   124   62   64 am   BACKBONE|DICT|INTERRES
   125   64   65 1    
   126   64  130 1    
   127   65   66 1    
   128   65   69 1    
   129   65  131 1    
   130   66   67 am   BACKBONE|DICT|INTERRES
   131   66   68 2    
   132   67  132 1    
   133   67  133 1    
   134   69   70 1    
   135   69  134 1    
   136   69  135 1    
   137   70   71 1    
   138   71  136 1    
   139   71  137 1    
@<TRIPOS>SUBSTRUCTURE
     1 UNK         1 GROUP             0       ****    0 ROOT    
