@<TRIPOS>MOLECULE
3R136
137   139    1
SMALL
USER_CHARGES


@<TRIPOS>ATOM
      1 CA         27.2142   20.0457    2.3510 C.3       0 UNK        -0.1979 
      2 C          27.8736   20.0927    0.9808 C.2       0 UNK         0.4864 
      3 O          27.7440   19.1447    0.2052 O.2       0 UNK        -0.5359 
      4 N          28.5797   21.1900    0.6779 N.am      1 UNK        -0.4318 
      5 CA         29.2461   21.4397   -0.6074 C.3       1 UNK         0.0824 
      6 C6         30.3457   22.5283   -0.4934 C.3       12 UNK        -0.0944 
      7 S7         29.8300   24.0619    0.3646 S.3       12 UNK        -0.2672 
      8 C8         30.7607   23.8908    1.9197 C.3       12 UNK         0.0333 
      9 C9         30.7122   25.1652    2.7456 C.ar      12 UNK        -0.0807 
     10 C10        31.7193   26.1239    2.6062 C.ar      12 UNK        -0.0894 
     11 C11        31.7086   27.2853    3.3830 C.ar      12 UNK        -0.0804 
     12 C12        30.6659   27.4945    4.2905 C.ar      12 UNK        -0.0824 
     13 C13        29.6508   26.5418    4.4403 C.ar      12 UNK        -0.0762 
     14 C14        29.6839   25.3749    3.6691 C.ar      12 UNK        -0.0782 
     15 C15        28.5304   26.7718    5.4501 C.3       12 UNK         0.0230 
     16 S16        26.8651   26.7580    4.7006 S.3       12 UNK        -0.2608 
     17 C17        27.0491   27.9648    3.3474 C.3       12 UNK        -0.0989 
     18 CA         26.8709   27.2810    1.9682 C.3       5 UNK         0.0716 
     19 N          25.4572   27.0201    1.6827 N.am      5 UNK        -0.4135 
     20 C          24.9989   26.3601    0.6138 C.2       4 UNK         0.5031 
     21 O          25.7242   25.8570   -0.2487 O.2       4 UNK        -0.5229 
     22 CA         23.4742   26.2484    0.4807 C.3       4 UNK         0.0329 
     23 CB         22.8564   27.5684   -0.0127 C.3       4 UNK        -0.2001 
     24 N          23.1911   25.1908   -0.4812 N.am      4 UNK        -0.4303 
     25 C          22.2116   24.2848   -0.4058 C.2       3 UNK         0.5044 
     26 O          21.3139   24.3151    0.4371 O.2       3 UNK        -0.5152 
     27 CA         22.2374   23.1396   -1.4408 C.3       3 UNK         0.0319 
     28 CB         21.1672   23.3688   -2.5209 C.3       3 UNK        -0.2001 
     29 N          23.5402   22.9424   -2.0929 N.am      3 UNK        -0.4354 
     30 C          24.6587   22.5423   -1.4712 C.2       2 UNK         0.4964 
     31 O          24.7053   22.2521   -0.2718 O.2       2 UNK        -0.5047 
     32 CA         25.9364   22.4704   -2.3229 C.3       2 UNK         0.0288 
     33 CB         26.1908   23.7604   -3.1336 C.3       2 UNK        -0.2113 
     34 N          27.0553   22.2055   -1.4254 N.am      2 UNK        -0.4145 
     35 C          28.2599   21.7324   -1.7602 C.2       1 UNK         0.5006 
     36 O          28.6053   21.5041   -2.9215 O.2       1 UNK        -0.5103 
     37 C          27.5213   28.1394    0.8686 C.2       5 UNK         0.5055 
     38 O          26.9917   29.2012    0.5296 O.2       5 UNK        -0.5220 
     39 N          28.6976   27.7096    0.3954 N.am      6 UNK        -0.4450 
     40 CA         29.5812   28.4788   -0.4829 C.3       6 UNK         0.0367 
     41 CB         30.4504   27.4981   -1.2922 C.3       6 UNK        -0.1929 
     42 C          30.4170   29.4586    0.3627 C.2       6 UNK         0.5070 
     43 O          31.6378   29.3209    0.4360 O.2       6 UNK        -0.5237 
     44 N          29.7163   30.3767    1.0435 N.am      7 UNK        -0.4739 
     45 CA         30.2123   31.2552    2.1050 C.3       7 UNK         0.0276 
     46 CB         29.0687   32.1717    2.5683 C.3       7 UNK        -0.1927 
     47 C          31.4483   32.0859    1.7196 C.2       7 UNK         0.5013 
     48 O          31.4846   32.6766    0.6374 O.2       7 UNK        -0.5193 
     49 N          32.4123   32.1381    2.6419 N.am      8 UNK        -0.4253 
     50 CA         33.6683   32.8699    2.5542 C.3       8 UNK         0.0242 
     51 CB         34.6807   32.0813    1.7025 C.3       8 UNK        -0.2000 
     52 C          34.1835   33.0483    3.9849 C.2       8 UNK         0.4948 
     53 O          33.8426   32.2398    4.8541 O.2       8 UNK        -0.5275 
     54 N          35.0194   34.0730    4.2023 N.am      9 UNK        -0.4246 
     55 CA         35.5897   34.4317    5.5091 C.3       9 UNK         0.0261 
     56 CB         36.4293   35.7117    5.3676 C.3       9 UNK        -0.1959 
     57 C          36.4196   33.3145    6.1682 C.2       9 UNK         0.5033 
     58 O          36.4367   33.2185    7.3962 O.2       9 UNK        -0.5390 
     59 N          37.0487   32.4641    5.3446 N.am      10 UNK        -0.4215 
     60 CA         37.7926   31.2722    5.7614 C.3       10 UNK         0.0240 
     61 CB         38.4812   30.6557    4.5325 C.3       10 UNK        -0.1982 
     62 C          36.9341   30.2131    6.4806 C.2       10 UNK         0.4970 
     63 O          37.4843   29.4396    7.2656 O.2       10 UNK        -0.4916 
     64 N          35.6208   30.1983    6.2153 N.am      11 UNK        -0.4279 
     65 CA         34.6439   29.3233    6.8809 C.3       11 UNK         0.1003 
     66 C          34.0719   29.9254    8.1983 C.2       11 UNK         0.5709 
     67 N          34.4580   31.1266    8.6167 N.am      11 UNK        -0.7358 
     68 O          33.2707   29.2794    8.8699 O.2       11 UNK        -0.4999 
     69 C69        33.5140   28.8796    5.9129 C.3       12 UNK        -0.0954 
     70 S70        34.1638   28.0283    4.4349 S.3       12 UNK        -0.2268 
     71 C71        32.8282   28.3061    3.2340 C.3       12 UNK         0.0203 
     72 H72        27.5501   19.1664    2.9000 H         1 UNK         0.0888 
     73 H73        27.4486   20.9273    2.9474 H         1 UNK         0.0888 
     74 H74        26.1314   19.9881    2.2425 H         1 UNK         0.0888 
     75 H75        28.6473   21.9435    1.3469 H         1 UNK         0.3017 
     76 H76        29.7503   20.5123   -0.8889 H         1 UNK         0.0873 
     77 H77        30.7267   22.8000   -1.4800 H         1 UNK         0.0745 
     78 H78        31.2043   22.1019    0.0270 H         1 UNK         0.0745 
     79 H79        30.3623   23.0536    2.4946 H         1 UNK         0.0705 
     80 H80        31.7997   23.6423    1.6970 H         1 UNK         0.0705 
     81 H81        32.5213   25.9609    1.8990 H         1 UNK         0.1334 
     82 H82        30.6543   28.3945    4.8896 H         1 UNK         0.1417 
     83 H83        28.9052   24.6333    3.7868 H         1 UNK         0.1562 
     84 H84        28.6673   27.7215    5.9698 H         1 UNK         0.0748 
     85 H85        28.5785   25.9960    6.2154 H         1 UNK         0.0748 
     86 H86        28.0239   28.4490    3.4321 H         1 UNK         0.0940 
     87 H87        26.3205   28.7665    3.4827 H         1 UNK         0.0940 
     88 H88        27.3827   26.3156    1.9808 H         1 UNK         0.0703 
     89 H89        24.7948   27.4106    2.3361 H         1 UNK         0.3081 
     90 H90        23.0611   25.9860    1.4572 H         1 UNK         0.0719 
     91 H91        23.2694   27.8701   -0.9762 H         1 UNK         0.0809 
     92 H92        21.7756   27.4807   -0.1252 H         1 UNK         0.0809 
     93 H93        23.0435   28.3798    0.6916 H         1 UNK         0.0809 
     94 H94        23.9326   25.0467   -1.1550 H         1 UNK         0.2990 
     95 H95        21.9913   22.2195   -0.9064 H         1 UNK         0.0690 
     96 H96        21.1102   22.5260   -3.2100 H         1 UNK         0.0788 
     97 H97        21.3684   24.2687   -3.1037 H         1 UNK         0.0788 
     98 H98        20.1790   23.4851   -2.0734 H         1 UNK         0.0788 
     99 H99        23.5848   23.1560   -3.0792 H         1 UNK         0.2993 
    100 H100       25.8283   21.6257   -3.0064 H         1 UNK         0.0949 
    101 H101       26.2983   24.6289   -2.4842 H         1 UNK         0.0767 
    102 H102       27.1012   23.6827   -3.7279 H         1 UNK         0.0767 
    103 H103       25.3797   23.9673   -3.8318 H         1 UNK         0.0767 
    104 H104       26.8232   22.3128   -0.4455 H         1 UNK         0.3013 
    105 H105       29.0760   26.8409    0.7490 H         1 UNK         0.3121 
    106 H106       28.9847   29.0636   -1.1865 H         1 UNK         0.0774 
    107 H107       31.0781   26.8845   -0.6443 H         1 UNK         0.0815 
    108 H108       31.1108   28.0344   -1.9746 H         1 UNK         0.0815 
    109 H109       29.8363   26.8273   -1.8934 H         1 UNK         0.0815 
    110 H110       28.7143   30.3848    0.8902 H         1 UNK         0.2987 
    111 H111       30.4787   30.6054    2.9403 H         1 UNK         0.0949 
    112 H112       28.2177   31.5952    2.9322 H         1 UNK         0.0806 
    113 H113       29.3915   32.8201    3.3842 H         1 UNK         0.0806 
    114 H114       28.7181   32.8150    1.7601 H         1 UNK         0.0806 
    115 H115       32.2878   31.6833    3.5387 H         1 UNK         0.3010 
    116 H116       33.4855   33.8518    2.1125 H         1 UNK         0.0829 
    117 H117       35.6317   32.6101    1.6288 H         1 UNK         0.0813 
    118 H118       34.8830   31.0972    2.1283 H         1 UNK         0.0813 
    119 H119       34.3148   31.9334    0.6863 H         1 UNK         0.0813 
    120 H120       35.2540   34.6789    3.4283 H         1 UNK         0.3038 
    121 H121       34.7537   34.6452    6.1786 H         1 UNK         0.0769 
    122 H122       37.2644   35.5743    4.6796 H         1 UNK         0.0811 
    123 H123       36.8464   36.0130    6.3297 H         1 UNK         0.0811 
    124 H124       35.8269   36.5447    5.0045 H         1 UNK         0.0811 
    125 H125       36.9743   32.6283    4.3515 H         1 UNK         0.3204 
    126 H126       38.5646   31.5946    6.4631 H         1 UNK         0.0748 
    127 H127       39.0707   29.7815    4.8129 H         1 UNK         0.0771 
    128 H128       37.7565   30.3327    3.7837 H         1 UNK         0.0771 
    129 H129       39.1620   31.3642    4.0601 H         1 UNK         0.0771 
    130 H130       35.2242   30.8941    5.5939 H         1 UNK         0.2980 
    131 H131       35.1598   28.4124    7.1899 H         1 UNK         0.0545 
    132 H132       35.1275   31.6754    8.0920 H         1 UNK         0.3459 
    133 H133       34.0783   31.4902    9.4761 H         1 UNK         0.3459 
    134 H134       32.9243   29.7442    5.6045 H         1 UNK         0.0616 
    135 H135       32.8249   28.1953    6.4110 H         1 UNK         0.0616 
    136 H136       33.2571   28.2413    2.2332 H         1 UNK         0.0634 
    137 H137       32.4422   29.3198    3.3296 H         1 UNK         0.0634 
@<TRIPOS>BOND
     1    1    2 1    
     2    1   72 1    
     3    1   73 1    
     4    1   74 1    
     5    2    3 2    
     6    2    4 am   BACKBONE|DICT|INTERRES
     7    4    5 1    
     8    4   75 1    
     9    5    6 1    
    10    5   35 1    
    11    5   76 1    
    12    6    7 1    
    13    6   77 1    
    14    6   78 1    
    15    7    8 1    
    16    8    9 1    
    17    8   79 1    
    18    8   80 1    
    19    9   10 ar   
    20    9   14 ar   
    21   10   11 ar   
    22   10   81 1    
    23   11   12 ar   
    24   11   71 1    
    25   12   13 ar   
    26   12   82 1    
    27   13   14 ar   
    28   13   15 1    
    29   14   83 1    
    30   15   16 1    
    31   15   84 1    
    32   15   85 1    
    33   16   17 1    
    34   17   18 1    
    35   17   86 1    
    36   17   87 1    
    37   18   19 1    
    38   18   37 1    
    39   18   88 1    
    40   19   20 am   BACKBONE|DICT|INTERRES
    41   19   89 1    
    42   20   21 2    
    43   20   22 1    
    44   22   23 1    
    45   22   24 1    
    46   22   90 1    
    47   23   91 1    
    48   23   92 1    
    49   23   93 1    
    50   24   25 am   BACKBONE|DICT|INTERRES
    51   24   94 1    
    52   25   26 2    
    53   25   27 1    
    54   27   28 1    
    55   27   29 1    
    56   27   95 1    
    57   28   96 1    
    58   28   97 1    
    59   28   98 1    
    60   29   30 am   BACKBONE|DICT|INTERRES
    61   29   99 1    
    62   30   31 2    
    63   30   32 1    
    64   32   33 1    
    65   32   34 1    
    66   32  100 1    
    67   33  101 1    
    68   33  102 1    
    69   33  103 1    
    70   34   35 am   BACKBONE|DICT|INTERRES
    71   34  104 1    
    72   35   36 2    
    73   37   38 2    
    74   37   39 am   BACKBONE|DICT|INTERRES
    75   39   40 1    
    76   39  105 1    
    77   40   41 1    
    78   40   42 1    
    79   40  106 1    
    80   41  107 1    
    81   41  108 1    
    82   41  109 1    
    83   42   43 2    
    84   42   44 am   BACKBONE|DICT|INTERRES
    85   44   45 1    
    86   44  110 1    
    87   45   46 1    
    88   45   47 1    
    89   45  111 1    
    90   46  112 1    
    91   46  113 1    
    92   46  114 1    
    93   47   48 2    
    94   47   49 am   BACKBONE|DICT|INTERRES
    95   49   50 1    
    96   49  115 1    
    97   50   51 1    
    98   50   52 1    
    99   50  116 1    
   100   51  117 1    
   101   51  118 1    
   102   51  119 1    
   103   52   53 2    
   104   52   54 am   BACKBONE|DICT|INTERRES
   105   54   55 1    
   106   54  120 1    
   107   55   56 1    
   108   55   57 1    
   109   55  121 1    
   110   56  122 1    
   111   56  123 1    
   112   56  124 1    
   113   57   58 2    
   114   57   59 am   BACKBONE|DICT|INTERRES
   115   59   60 1    
   116   59  125 1    
   117   60   61 1    
   118   60   62 1    
   119   60  126 1    
   120   61  127 1    
   121   61  128 1    
   122   61  129 1    
   123   62   63 2    
   124   62   64 am   BACKBONE|DICT|INTERRES
   125   64   65 1    
   126   64  130 1    
   127   65   66 1    
   128   65   69 1    
   129   65  131 1    
   130   66   67 am   BACKBONE|DICT|INTERRES
   131   66   68 2    
   132   67  132 1    
   133   67  133 1    
   134   69   70 1    
   135   69  134 1    
   136   69  135 1    
   137   70   71 1    
   138   71  136 1    
   139   71  137 1    
@<TRIPOS>SUBSTRUCTURE
     1 UNK         1 GROUP             0       ****    0 ROOT    
