@<TRIPOS>MOLECULE
3R136
137   139    1
SMALL
USER_CHARGES


@<TRIPOS>ATOM
      1 CA         35.9210   23.2201    2.7444 C.3       0 UNK        -0.1979 
      2 C          34.4198   23.4590    2.8100 C.2       0 UNK         0.4864 
      3 O          33.8547   23.4786    3.9044 O.2       0 UNK        -0.5359 
      4 N          33.7804   23.6406    1.6492 N.am      1 UNK        -0.4318 
      5 CA         32.3640   23.9714    1.5044 C.3       1 UNK         0.0824 
      6 C6         31.5120   22.7622    1.0326 C.3       12 UNK        -0.0944 
      7 S7         31.4219   21.4204    2.2657 S.3       12 UNK        -0.2672 
      8 C8         29.6173   21.2358    2.5015 C.3       12 UNK         0.0333 
      9 C9         28.8938   22.4197    3.1499 C.ar      12 UNK        -0.0807 
     10 C10        29.5661   23.4358    3.8393 C.ar      12 UNK        -0.0894 
     11 C11        28.8661   24.5022    4.4092 C.ar      12 UNK        -0.0804 
     12 C12        27.4697   24.5324    4.3317 C.ar      12 UNK        -0.0824 
     13 C13        26.7790   23.5005    3.6873 C.ar      12 UNK        -0.0762 
     14 C14        27.4976   22.4632    3.0838 C.ar      12 UNK        -0.0782 
     15 C15        25.2571   23.4591    3.6881 C.3       12 UNK         0.0230 
     16 S16        24.5398   24.3188    2.2536 S.3       12 UNK        -0.2608 
     17 C17        24.2150   25.9883    2.9207 C.3       12 UNK        -0.0989 
     18 CA         25.1216   27.0794    2.2961 C.3       5 UNK         0.0716 
     19 N          25.0234   27.0901    0.8282 N.am      5 UNK        -0.4135 
     20 C          25.9272   27.6041   -0.0128 C.2       4 UNK         0.5031 
     21 O          26.9222   28.2357    0.3560 O.2       4 UNK        -0.5229 
     22 CA         25.6736   27.4180   -1.5111 C.3       4 UNK         0.0329 
     23 CB         24.7639   28.5284   -2.0628 C.3       4 UNK        -0.2001 
     24 N          26.9751   27.4786   -2.1613 N.am      4 UNK        -0.4303 
     25 C          27.3854   26.7357   -3.1921 C.2       3 UNK         0.5044 
     26 O          26.6457   26.0031   -3.8504 O.2       3 UNK        -0.5152 
     27 CA         28.8859   26.8086   -3.5390 C.3       3 UNK         0.0319 
     28 CB         29.1203   27.7865   -4.7019 C.3       3 UNK        -0.2001 
     29 N          29.7479   27.1870   -2.4091 N.am      3 UNK        -0.4354 
     30 C          29.9271   26.4536   -1.3003 C.2       2 UNK         0.4964 
     31 O          29.3670   25.3736   -1.0962 O.2       2 UNK        -0.5047 
     32 CA         30.8820   27.0401   -0.2447 C.3       2 UNK         0.0288 
     33 CB         30.2244   28.1909    0.5364 C.3       2 UNK        -0.2113 
     34 N          31.2962   26.0154    0.7111 N.am      2 UNK        -0.4145 
     35 C          32.2569   25.1132    0.4855 C.2       1 UNK         0.5006 
     36 O          33.0090   25.1324   -0.4939 O.2       1 UNK        -0.5103 
     37 C          24.8702   28.4741    2.9248 C.2       5 UNK         0.5055 
     38 O          24.0735   28.6031    3.8562 O.2       5 UNK        -0.5220 
     39 N          25.5545   29.4976    2.4029 N.am      6 UNK        -0.4450 
     40 CA         25.4974   30.8905    2.8492 C.3       6 UNK         0.0367 
     41 CB         25.8313   31.7966    1.6514 C.3       6 UNK        -0.1929 
     42 C          26.4473   31.1860    4.0247 C.2       6 UNK         0.5070 
     43 O          26.3817   32.2842    4.5772 O.2       6 UNK        -0.5237 
     44 N          27.3233   30.2254    4.3638 N.am      7 UNK        -0.4739 
     45 CA         28.4008   30.3135    5.3595 C.3       7 UNK         0.0276 
     46 CB         27.8347   30.4752    6.7865 C.3       7 UNK        -0.1927 
     47 C          29.4512   31.3816    4.9925 C.2       7 UNK         0.5013 
     48 O          29.9207   32.1221    5.8596 O.2       7 UNK        -0.5193 
     49 N          29.7947   31.4325    3.6977 N.am      8 UNK        -0.4253 
     50 CA         30.8730   32.2472    3.1346 C.3       8 UNK         0.0242 
     51 CB         30.7223   32.2585    1.6028 C.3       8 UNK        -0.2000 
     52 C          32.2558   31.7070    3.5410 C.2       8 UNK         0.4948 
     53 O          32.3515   30.5897    4.0503 O.2       8 UNK        -0.5275 
     54 N          33.3150   32.4804    3.2603 N.am      9 UNK        -0.4246 
     55 CA         34.7147   32.1705    3.5979 C.3       9 UNK         0.0261 
     56 CB         35.6264   33.2823    3.0539 C.3       9 UNK        -0.1959 
     57 C          35.2192   30.7891    3.1315 C.2       9 UNK         0.5033 
     58 O          36.0838   30.2097    3.7900 O.2       9 UNK        -0.5390 
     59 N          34.6409   30.2638    2.0427 N.am      10 UNK        -0.4215 
     60 CA         34.8678   28.9104    1.5306 C.3       10 UNK         0.0240 
     61 CB         34.1705   28.7685    0.1701 C.3       10 UNK        -0.1982 
     62 C          34.4428   27.7804    2.4927 C.2       10 UNK         0.4970 
     63 O          35.0104   26.6930    2.3993 O.2       10 UNK        -0.4916 
     64 N          33.4992   28.0478    3.4089 N.am      11 UNK        -0.4279 
     65 CA         33.1656   27.1640    4.5399 C.3       11 UNK         0.1003 
     66 C          34.2227   27.1853    5.6870 C.2       11 UNK         0.5709 
     67 N          35.2413   28.0388    5.6643 N.am      11 UNK        -0.7358 
     68 O          34.1227   26.3971    6.6242 O.2       11 UNK        -0.4999 
     69 C69        31.7339   27.4389    5.0856 C.3       12 UNK        -0.0954 
     70 S70        30.4299   26.7582    4.0056 S.3       12 UNK        -0.2268 
     71 C71        29.6350   25.5839    5.1504 C.3       12 UNK         0.0203 
     72 H72        36.4478   24.0291    3.2503 H         1 UNK         0.0888 
     73 H73        36.1753   22.2827    3.2384 H         1 UNK         0.0888 
     74 H74        36.2815   23.1716    1.7170 H         1 UNK         0.0888 
     75 H75        34.3026   23.6829    0.7837 H         1 UNK         0.3017 
     76 H76        31.9787   24.3482    2.4526 H         1 UNK         0.0873 
     77 H77        30.4963   23.0851    0.7930 H         1 UNK         0.0745 
     78 H78        31.9177   22.3452    0.1087 H         1 UNK         0.0745 
     79 H79        29.1673   21.0215    1.5307 H         1 UNK         0.0705 
     80 H80        29.4471   20.3536    3.1199 H         1 UNK         0.0705 
     81 H81        30.6397   23.4034    3.9508 H         1 UNK         0.1334 
     82 H82        26.9205   25.3389    4.7978 H         1 UNK         0.1417 
     83 H83        26.9626   21.6691    2.5801 H         1 UNK         0.1562 
     84 H84        24.8642   23.8642    4.6214 H         1 UNK         0.0748 
     85 H85        24.9226   22.4208    3.6615 H         1 UNK         0.0748 
     86 H86        24.3310   25.9753    4.0058 H         1 UNK         0.0940 
     87 H87        23.1637   26.2208    2.7397 H         1 UNK         0.0940 
     88 H88        26.1522   26.8199    2.5494 H         1 UNK         0.0703 
     89 H89        24.2227   26.6098    0.4440 H         1 UNK         0.3081 
     90 H90        25.2160   26.4397   -1.6745 H         1 UNK         0.0719 
     91 H91        25.1867   29.5191   -1.8895 H         1 UNK         0.0809 
     92 H92        24.6089   28.4145   -3.1359 H         1 UNK         0.0809 
     93 H93        23.7820   28.5036   -1.5888 H         1 UNK         0.0809 
     94 H94        27.6637   28.0036   -1.6363 H         1 UNK         0.2990 
     95 H95        29.1893   25.8117   -3.8657 H         1 UNK         0.0690 
     96 H96        30.1620   27.7805   -5.0233 H         1 UNK         0.0788 
     97 H97        28.8568   28.8093   -4.4290 H         1 UNK         0.0788 
     98 H98        28.5151   27.5147   -5.5681 H         1 UNK         0.0788 
     99 H99        30.2404   28.0646   -2.4964 H         1 UNK         0.2993 
    100 H100       31.7606   27.4183   -0.7692 H         1 UNK         0.0949 
    101 H101       29.3639   27.8426    1.1078 H         1 UNK         0.0767 
    102 H102       30.9226   28.6390    1.2439 H         1 UNK         0.0767 
    103 H103       29.8792   28.9837   -0.1280 H         1 UNK         0.0767 
    104 H104       30.7070   25.9097    1.5255 H         1 UNK         0.3013 
    105 H105       26.1847   29.2810    1.6312 H         1 UNK         0.3121 
    106 H106       24.4825   31.1186    3.1818 H         1 UNK         0.0774 
    107 H107       26.8414   31.6190    1.2797 H         1 UNK         0.0815 
    108 H108       25.7654   32.8503    1.9262 H         1 UNK         0.0815 
    109 H109       25.1372   31.6350    0.8264 H         1 UNK         0.0815 
    110 H110       27.2824   29.3635    3.8389 H         1 UNK         0.2987 
    111 H111       28.9273   29.3579    5.3271 H         1 UNK         0.0949 
    112 H112       27.1080   29.6959    7.0155 H         1 UNK         0.0806 
    113 H113       28.6294   30.4050    7.5302 H         1 UNK         0.0806 
    114 H114       27.3474   31.4407    6.9247 H         1 UNK         0.0806 
    115 H115       29.3634   30.7685    3.0732 H         1 UNK         0.3010 
    116 H116       30.7741   33.2660    3.5152 H         1 UNK         0.0829 
    117 H117       31.4624   32.9082    1.1342 H         1 UNK         0.0813 
    118 H118       30.8465   31.2623    1.1762 H         1 UNK         0.0813 
    119 H119       29.7410   32.6288    1.3047 H         1 UNK         0.0813 
    120 H120       33.1510   33.3776    2.8255 H         1 UNK         0.3038 
    121 H121       34.7845   32.1774    4.6876 H         1 UNK         0.0769 
    122 H122       35.5664   33.3584    1.9674 H         1 UNK         0.0811 
    123 H123       36.6699   33.0923    3.3099 H         1 UNK         0.0811 
    124 H124       35.3654   34.2535    3.4749 H         1 UNK         0.0811 
    125 H125       33.9402   30.8165    1.5719 H         1 UNK         0.3204 
    126 H126       35.9423   28.7974    1.3714 H         1 UNK         0.0748 
    127 H127       34.2520   27.7495   -0.2119 H         1 UNK         0.0771 
    128 H128       33.1122   29.0155    0.2389 H         1 UNK         0.0771 
    129 H129       34.6187   29.4279   -0.5735 H         1 UNK         0.0771 
    130 H130       33.0984   28.9813    3.4618 H         1 UNK         0.2980 
    131 H131       33.1797   26.1375    4.1703 H         1 UNK         0.0545 
    132 H132       35.3664   28.7012    4.9072 H         1 UNK         0.3459 
    133 H133       35.9064   28.0201    6.4204 H         1 UNK         0.3459 
    134 H134       31.5604   28.5063    5.2141 H         1 UNK         0.0616 
    135 H135       31.6075   27.0145    6.0827 H         1 UNK         0.0616 
    136 H136       30.3925   25.1038    5.7722 H         1 UNK         0.0634 
    137 H137       28.9802   26.1330    5.8287 H         1 UNK         0.0634 
@<TRIPOS>BOND
     1    1    2 1    
     2    1   72 1    
     3    1   73 1    
     4    1   74 1    
     5    2    3 2    
     6    2    4 am   BACKBONE|DICT|INTERRES
     7    4    5 1    
     8    4   75 1    
     9    5    6 1    
    10    5   35 1    
    11    5   76 1    
    12    6    7 1    
    13    6   77 1    
    14    6   78 1    
    15    7    8 1    
    16    8    9 1    
    17    8   79 1    
    18    8   80 1    
    19    9   10 ar   
    20    9   14 ar   
    21   10   11 ar   
    22   10   81 1    
    23   11   12 ar   
    24   11   71 1    
    25   12   13 ar   
    26   12   82 1    
    27   13   14 ar   
    28   13   15 1    
    29   14   83 1    
    30   15   16 1    
    31   15   84 1    
    32   15   85 1    
    33   16   17 1    
    34   17   18 1    
    35   17   86 1    
    36   17   87 1    
    37   18   19 1    
    38   18   37 1    
    39   18   88 1    
    40   19   20 am   BACKBONE|DICT|INTERRES
    41   19   89 1    
    42   20   21 2    
    43   20   22 1    
    44   22   23 1    
    45   22   24 1    
    46   22   90 1    
    47   23   91 1    
    48   23   92 1    
    49   23   93 1    
    50   24   25 am   BACKBONE|DICT|INTERRES
    51   24   94 1    
    52   25   26 2    
    53   25   27 1    
    54   27   28 1    
    55   27   29 1    
    56   27   95 1    
    57   28   96 1    
    58   28   97 1    
    59   28   98 1    
    60   29   30 am   BACKBONE|DICT|INTERRES
    61   29   99 1    
    62   30   31 2    
    63   30   32 1    
    64   32   33 1    
    65   32   34 1    
    66   32  100 1    
    67   33  101 1    
    68   33  102 1    
    69   33  103 1    
    70   34   35 am   BACKBONE|DICT|INTERRES
    71   34  104 1    
    72   35   36 2    
    73   37   38 2    
    74   37   39 am   BACKBONE|DICT|INTERRES
    75   39   40 1    
    76   39  105 1    
    77   40   41 1    
    78   40   42 1    
    79   40  106 1    
    80   41  107 1    
    81   41  108 1    
    82   41  109 1    
    83   42   43 2    
    84   42   44 am   BACKBONE|DICT|INTERRES
    85   44   45 1    
    86   44  110 1    
    87   45   46 1    
    88   45   47 1    
    89   45  111 1    
    90   46  112 1    
    91   46  113 1    
    92   46  114 1    
    93   47   48 2    
    94   47   49 am   BACKBONE|DICT|INTERRES
    95   49   50 1    
    96   49  115 1    
    97   50   51 1    
    98   50   52 1    
    99   50  116 1    
   100   51  117 1    
   101   51  118 1    
   102   51  119 1    
   103   52   53 2    
   104   52   54 am   BACKBONE|DICT|INTERRES
   105   54   55 1    
   106   54  120 1    
   107   55   56 1    
   108   55   57 1    
   109   55  121 1    
   110   56  122 1    
   111   56  123 1    
   112   56  124 1    
   113   57   58 2    
   114   57   59 am   BACKBONE|DICT|INTERRES
   115   59   60 1    
   116   59  125 1    
   117   60   61 1    
   118   60   62 1    
   119   60  126 1    
   120   61  127 1    
   121   61  128 1    
   122   61  129 1    
   123   62   63 2    
   124   62   64 am   BACKBONE|DICT|INTERRES
   125   64   65 1    
   126   64  130 1    
   127   65   66 1    
   128   65   69 1    
   129   65  131 1    
   130   66   67 am   BACKBONE|DICT|INTERRES
   131   66   68 2    
   132   67  132 1    
   133   67  133 1    
   134   69   70 1    
   135   69  134 1    
   136   69  135 1    
   137   70   71 1    
   138   71  136 1    
   139   71  137 1    
@<TRIPOS>SUBSTRUCTURE
     1 UNK         1 GROUP             0       ****    0 ROOT    
