@<TRIPOS>MOLECULE
3R136
137   139    1
SMALL
USER_CHARGES


@<TRIPOS>ATOM
      1 CA         27.9769   28.8277    6.7288 C.3       0 UNK        -0.1979 
      2 C          27.9571   27.4797    6.0244 C.2       0 UNK         0.4864 
      3 O          27.6516   26.4721    6.6635 O.2       0 UNK        -0.5359 
      4 N          28.2784   27.4546    4.7236 N.am      1 UNK        -0.4318 
      5 CA         28.1702   26.2764    3.8617 C.3       1 UNK         0.0824 
      6 C6         29.2177   26.2960    2.7141 C.3       12 UNK        -0.0944 
      7 S7         29.1728   24.7603    1.7217 S.3       12 UNK        -0.2672 
      8 C8         30.8866   24.1499    1.8318 C.3       12 UNK         0.0333 
      9 C9         31.8144   24.8787    0.8688 C.ar      12 UNK        -0.0807 
     10 C10        33.0008   25.4585    1.3243 C.ar      12 UNK        -0.0894 
     11 C11        33.8475   26.1353    0.4398 C.ar      12 UNK        -0.0804 
     12 C12        33.5001   26.2258   -0.9136 C.ar      12 UNK        -0.0824 
     13 C13        32.3262   25.6290   -1.3853 C.ar      12 UNK        -0.0762 
     14 C14        31.4987   24.9464   -0.4904 C.ar      12 UNK        -0.0782 
     15 C15        31.9438   25.7058   -2.8586 C.3       12 UNK         0.0230 
     16 S16        31.3843   27.3622   -3.3867 S.3       12 UNK        -0.2608 
     17 C17        30.2076   27.8781   -2.0894 C.3       12 UNK        -0.0989 
     18 CA         28.7249   27.5541   -2.4018 C.3       5 UNK         0.0716 
     19 N          28.4737   26.1170   -2.4883 N.am      5 UNK        -0.4135 
     20 C          27.4730   25.5665   -3.1855 C.2       4 UNK         0.5031 
     21 O          26.7330   26.1910   -3.9463 O.2       4 UNK        -0.5229 
     22 CA         27.2200   24.0775   -2.9394 C.3       4 UNK         0.0329 
     23 CB         28.4448   23.2042   -3.2769 C.3       4 UNK        -0.2001 
     24 N          26.8102   23.8956   -1.5487 N.am      4 UNK        -0.4303 
     25 C          26.0627   22.8856   -1.0867 C.2       3 UNK         0.5044 
     26 O          25.6673   21.9504   -1.7840 O.2       3 UNK        -0.5152 
     27 CA         25.6890   22.9164    0.4063 C.3       3 UNK         0.0319 
     28 CB         26.5969   21.9669    1.2051 C.3       3 UNK        -0.2001 
     29 N          25.7743   24.2613    0.9828 N.am      3 UNK        -0.4354 
     30 C          24.8175   25.1972    0.8891 C.2       2 UNK         0.4964 
     31 O          23.7383   25.0031    0.3283 O.2       2 UNK        -0.5047 
     32 CA         25.1139   26.5928    1.4774 C.3       2 UNK         0.0288 
     33 CB         23.9375   27.1514    2.3061 C.3       2 UNK        -0.2113 
     34 N          26.3888   26.6821    2.2055 N.am      2 UNK        -0.4145 
     35 C          26.7043   26.1349    3.3914 C.2       1 UNK         0.5006 
     36 O          25.9058   25.5092    4.0903 O.2       1 UNK        -0.5103 
     37 C          27.8559   28.1186   -1.2681 C.2       5 UNK         0.5055 
     38 O          27.7399   27.4759   -0.2212 O.2       5 UNK        -0.5220 
     39 N          27.3680   29.3537   -1.4275 N.am      6 UNK        -0.4450 
     40 CA         26.7662   30.1519   -0.3515 C.3       6 UNK         0.0367 
     41 CB         25.7433   31.1291   -0.9597 C.3       6 UNK        -0.1929 
     42 C          27.8550   30.8669    0.4793 C.2       6 UNK         0.5070 
     43 O          27.7352   32.0586    0.7683 O.2       6 UNK        -0.5237 
     44 N          28.9268   30.1334    0.8023 N.am      7 UNK        -0.4739 
     45 CA         30.1007   30.6147    1.5236 C.3       7 UNK         0.0276 
     46 CB         31.2876   29.6914    1.2029 C.3       7 UNK        -0.1927 
     47 C          29.8478   30.6631    3.0365 C.2       7 UNK         0.5013 
     48 O          29.0200   29.9035    3.5482 O.2       7 UNK        -0.5193 
     49 N          30.5939   31.5389    3.7197 N.am      8 UNK        -0.4253 
     50 CA         30.5965   31.6928    5.1753 C.3       8 UNK         0.0242 
     51 CB         31.3134   33.0089    5.5250 C.3       8 UNK        -0.2000 
     52 C          31.2770   30.5087    5.8838 C.2       8 UNK         0.4948 
     53 O          31.9998   29.7369    5.2501 O.2       8 UNK        -0.5275 
     54 N          31.0835   30.4244    7.2084 N.am      9 UNK        -0.4246 
     55 CA         31.6337   29.3816    8.0877 C.3       9 UNK         0.0261 
     56 CB         31.1427   29.6180    9.5251 C.3       9 UNK        -0.1959 
     57 C          33.1694   29.2531    8.0598 C.2       9 UNK         0.5033 
     58 O          33.6859   28.1657    8.3193 O.2       9 UNK        -0.5390 
     59 N          33.8675   30.3382    7.6939 N.am      10 UNK        -0.4215 
     60 CA         35.3107   30.3797    7.4390 C.3       10 UNK         0.0240 
     61 CB         35.7258   31.8300    7.1420 C.3       10 UNK        -0.1982 
     62 C          35.7800   29.4434    6.3060 C.2       10 UNK         0.4970 
     63 O          36.9468   29.0490    6.3105 O.2       10 UNK        -0.4916 
     64 N          34.8787   29.0887    5.3780 N.am      11 UNK        -0.4279 
     65 CA         35.1012   28.0625    4.3478 C.3       11 UNK         0.1003 
     66 C          35.0401   26.6028    4.8970 C.2       11 UNK         0.5709 
     67 N          34.6202   26.3593    6.1342 N.am      11 UNK        -0.7358 
     68 O          35.3974   25.6637    4.1927 O.2       11 UNK        -0.4999 
     69 C69        34.1520   28.2747    3.1287 C.3       12 UNK        -0.0954 
     70 S70        35.0179   28.4349    1.5284 S.3       12 UNK        -0.2268 
     71 C71        35.1645   26.7186    0.9347 C.3       12 UNK         0.0203 
     72 H72        26.9872   29.0570    7.1228 H         1 UNK         0.0888 
     73 H73        28.6763   28.8040    7.5628 H         1 UNK         0.0888 
     74 H74        28.2661   29.6353    6.0590 H         1 UNK         0.0888 
     75 H75        28.5232   28.3292    4.2576 H         1 UNK         0.3017 
     76 H76        28.3886   25.3921    4.4651 H         1 UNK         0.0873 
     77 H77        29.0790   27.1549    2.0568 H         1 UNK         0.0745 
     78 H78        30.2164   26.4160    3.1371 H         1 UNK         0.0745 
     79 H79        31.2376   24.2286    2.8620 H         1 UNK         0.0705 
     80 H80        30.8945   23.0878    1.5838 H         1 UNK         0.0705 
     81 H81        33.2737   25.3711    2.3668 H         1 UNK         0.1334 
     82 H82        34.1482   26.7492   -1.6035 H         1 UNK         0.1417 
     83 H83        30.5964   24.4696   -0.8435 H         1 UNK         0.1562 
     84 H84        31.1613   24.9830   -3.0922 H         1 UNK         0.0748 
     85 H85        32.8034   25.4189   -3.4659 H         1 UNK         0.0748 
     86 H86        30.3311   28.9587   -1.9915 H         1 UNK         0.0940 
     87 H87        30.5035   27.4733   -1.1210 H         1 UNK         0.0940 
     88 H88        28.4480   28.0340   -3.3432 H         1 UNK         0.0703 
     89 H89        28.9971   25.5439   -1.8471 H         1 UNK         0.3081 
     90 H90        26.3961   23.7800   -3.5921 H         1 UNK         0.0719 
     91 H91        29.2656   23.3557   -2.5768 H         1 UNK         0.0809 
     92 H92        28.1875   22.1451   -3.2553 H         1 UNK         0.0809 
     93 H93        28.8188   23.4233   -4.2780 H         1 UNK         0.0809 
     94 H94        27.0398   24.6456   -0.9111 H         1 UNK         0.2990 
     95 H95        24.6615   22.5576    0.4979 H         1 UNK         0.0690 
     96 H96        26.4967   20.9414    0.8469 H         1 UNK         0.0788 
     97 H97        26.3381   21.9661    2.2641 H         1 UNK         0.0788 
     98 H98        27.6490   22.2389    1.1158 H         1 UNK         0.0788 
     99 H99        26.6351   24.4985    1.4567 H         1 UNK         0.2993 
    100 H100       25.2264   27.2451    0.6109 H         1 UNK         0.0949 
    101 H101       24.1666   28.1401    2.7036 H         1 UNK         0.0767 
    102 H102       23.0413   27.2502    1.6923 H         1 UNK         0.0767 
    103 H103       23.6820   26.5018    3.1434 H         1 UNK         0.0767 
    104 H104       27.1342   27.1070    1.6617 H         1 UNK         0.3013 
    105 H105       27.5413   29.8376   -2.2977 H         1 UNK         0.3121 
    106 H106       26.2260   29.4946    0.3328 H         1 UNK         0.0774 
    107 H107       26.2182   31.8459   -1.6306 H         1 UNK         0.0815 
    108 H108       25.2349   31.6984   -0.1803 H         1 UNK         0.0815 
    109 H109       24.9750   30.5990   -1.5227 H         1 UNK         0.0815 
    110 H110       28.9005   29.1469    0.5831 H         1 UNK         0.2987 
    111 H111       30.3347   31.6224    1.1724 H         1 UNK         0.0949 
    112 H112       31.1386   28.6809    1.5866 H         1 UNK         0.0806 
    113 H113       31.4646   29.6214    0.1301 H         1 UNK         0.0806 
    114 H114       32.2046   30.0778    1.6465 H         1 UNK         0.0806 
    115 H115       31.2756   32.0856    3.2148 H         1 UNK         0.3010 
    116 H116       29.5605   31.7502    5.5158 H         1 UNK         0.0829 
    117 H117       30.8382   33.8602    5.0368 H         1 UNK         0.0813 
    118 H118       31.2883   33.2047    6.5977 H         1 UNK         0.0813 
    119 H119       32.3612   32.9919    5.2212 H         1 UNK         0.0813 
    120 H120       30.4990   31.1177    7.6540 H         1 UNK         0.3038 
    121 H121       31.2325   28.4264    7.7423 H         1 UNK         0.0769 
    122 H122       31.5120   28.8411   10.1963 H         1 UNK         0.0811 
    123 H123       31.4864   30.5762    9.9168 H         1 UNK         0.0811 
    124 H124       30.0544   29.6009    9.5844 H         1 UNK         0.0811 
    125 H125       33.3518   31.1850    7.5067 H         1 UNK         0.3204 
    126 H126       35.8139   30.0576    8.3530 H         1 UNK         0.0748 
    127 H127       36.8017   31.9022    6.9759 H         1 UNK         0.0771 
    128 H128       35.2319   32.2167    6.2494 H         1 UNK         0.0771 
    129 H129       35.4845   32.4916    7.9743 H         1 UNK         0.0771 
    130 H130       33.9253   29.4326    5.4482 H         1 UNK         0.2980 
    131 H131       36.1283   28.1915    4.0019 H         1 UNK         0.0545 
    132 H132       34.6012   25.4067    6.4604 H         1 UNK         0.3459 
    133 H133       34.3345   27.1061    6.7578 H         1 UNK         0.3459 
    134 H134       33.6074   29.2111    3.2456 H         1 UNK         0.0616 
    135 H135       33.3692   27.5198    3.0694 H         1 UNK         0.0616 
    136 H136       35.5903   26.0891    1.7140 H         1 UNK         0.0634 
    137 H137       35.8922   26.7053    0.1221 H         1 UNK         0.0634 
@<TRIPOS>BOND
     1    1    2 1    
     2    1   72 1    
     3    1   73 1    
     4    1   74 1    
     5    2    3 2    
     6    2    4 am   BACKBONE|DICT|INTERRES
     7    4    5 1    
     8    4   75 1    
     9    5    6 1    
    10    5   35 1    
    11    5   76 1    
    12    6    7 1    
    13    6   77 1    
    14    6   78 1    
    15    7    8 1    
    16    8    9 1    
    17    8   79 1    
    18    8   80 1    
    19    9   10 ar   
    20    9   14 ar   
    21   10   11 ar   
    22   10   81 1    
    23   11   12 ar   
    24   11   71 1    
    25   12   13 ar   
    26   12   82 1    
    27   13   14 ar   
    28   13   15 1    
    29   14   83 1    
    30   15   16 1    
    31   15   84 1    
    32   15   85 1    
    33   16   17 1    
    34   17   18 1    
    35   17   86 1    
    36   17   87 1    
    37   18   19 1    
    38   18   37 1    
    39   18   88 1    
    40   19   20 am   BACKBONE|DICT|INTERRES
    41   19   89 1    
    42   20   21 2    
    43   20   22 1    
    44   22   23 1    
    45   22   24 1    
    46   22   90 1    
    47   23   91 1    
    48   23   92 1    
    49   23   93 1    
    50   24   25 am   BACKBONE|DICT|INTERRES
    51   24   94 1    
    52   25   26 2    
    53   25   27 1    
    54   27   28 1    
    55   27   29 1    
    56   27   95 1    
    57   28   96 1    
    58   28   97 1    
    59   28   98 1    
    60   29   30 am   BACKBONE|DICT|INTERRES
    61   29   99 1    
    62   30   31 2    
    63   30   32 1    
    64   32   33 1    
    65   32   34 1    
    66   32  100 1    
    67   33  101 1    
    68   33  102 1    
    69   33  103 1    
    70   34   35 am   BACKBONE|DICT|INTERRES
    71   34  104 1    
    72   35   36 2    
    73   37   38 2    
    74   37   39 am   BACKBONE|DICT|INTERRES
    75   39   40 1    
    76   39  105 1    
    77   40   41 1    
    78   40   42 1    
    79   40  106 1    
    80   41  107 1    
    81   41  108 1    
    82   41  109 1    
    83   42   43 2    
    84   42   44 am   BACKBONE|DICT|INTERRES
    85   44   45 1    
    86   44  110 1    
    87   45   46 1    
    88   45   47 1    
    89   45  111 1    
    90   46  112 1    
    91   46  113 1    
    92   46  114 1    
    93   47   48 2    
    94   47   49 am   BACKBONE|DICT|INTERRES
    95   49   50 1    
    96   49  115 1    
    97   50   51 1    
    98   50   52 1    
    99   50  116 1    
   100   51  117 1    
   101   51  118 1    
   102   51  119 1    
   103   52   53 2    
   104   52   54 am   BACKBONE|DICT|INTERRES
   105   54   55 1    
   106   54  120 1    
   107   55   56 1    
   108   55   57 1    
   109   55  121 1    
   110   56  122 1    
   111   56  123 1    
   112   56  124 1    
   113   57   58 2    
   114   57   59 am   BACKBONE|DICT|INTERRES
   115   59   60 1    
   116   59  125 1    
   117   60   61 1    
   118   60   62 1    
   119   60  126 1    
   120   61  127 1    
   121   61  128 1    
   122   61  129 1    
   123   62   63 2    
   124   62   64 am   BACKBONE|DICT|INTERRES
   125   64   65 1    
   126   64  130 1    
   127   65   66 1    
   128   65   69 1    
   129   65  131 1    
   130   66   67 am   BACKBONE|DICT|INTERRES
   131   66   68 2    
   132   67  132 1    
   133   67  133 1    
   134   69   70 1    
   135   69  134 1    
   136   69  135 1    
   137   70   71 1    
   138   71  136 1    
   139   71  137 1    
@<TRIPOS>SUBSTRUCTURE
     1 UNK         1 GROUP             0       ****    0 ROOT    
