@<TRIPOS>MOLECULE
3R136
137   139    1
SMALL
USER_CHARGES


@<TRIPOS>ATOM
      1 CA         30.1476   20.1244   -4.0938 C.3       0 UNK        -0.1979 
      2 C          29.9644   21.4846   -3.4382 C.2       0 UNK         0.4864 
      3 O          29.5390   22.4331   -4.0992 O.2       0 UNK        -0.5359 
      4 N          30.2631   21.5888   -2.1373 N.am      1 UNK        -0.4318 
      5 CA         30.1839   22.8007   -1.3091 C.3       1 UNK         0.0824 
      6 C6         31.1520   22.7200   -0.0954 C.3       12 UNK        -0.0944 
      7 S7         31.1147   21.1495    0.8458 S.3       12 UNK        -0.2672 
      8 C8         30.1022   21.5562    2.3160 C.3       12 UNK         0.0333 
      9 C9         30.6286   22.6611    3.2380 C.ar      12 UNK        -0.0807 
     10 C10        31.9328   23.1660    3.1625 C.ar      12 UNK        -0.0894 
     11 C11        32.3579   24.1828    4.0218 C.ar      12 UNK        -0.0804 
     12 C12        31.4761   24.6901    4.9813 C.ar      12 UNK        -0.0824 
     13 C13        30.1756   24.1879    5.0855 C.ar      12 UNK        -0.0762 
     14 C14        29.7657   23.1727    4.2125 C.ar      12 UNK        -0.0782 
     15 C15        29.2374   24.7065    6.1729 C.3       12 UNK         0.0230 
     16 S16        27.5736   25.0962    5.5360 S.3       12 UNK        -0.2608 
     17 C17        27.4197   26.8896    5.8500 C.3       12 UNK        -0.0989 
     18 CA         28.3325   27.8065    4.9881 C.3       5 UNK         0.0716 
     19 N          28.5075   27.2949    3.6271 N.am      5 UNK        -0.4135 
     20 C          29.2130   27.8557    2.6375 C.2       4 UNK         0.5031 
     21 O          29.8516   28.9031    2.7472 O.2       4 UNK        -0.5229 
     22 CA         29.1116   27.1793    1.2615 C.3       4 UNK         0.0329 
     23 CB         30.2824   26.2090    1.0735 C.3       4 UNK        -0.2001 
     24 N          27.8356   26.4857    1.0151 N.am      4 UNK        -0.4303 
     25 C          26.6187   27.0544    1.0942 C.2       3 UNK         0.5044 
     26 O          26.4460   28.2176    1.4663 O.2       3 UNK        -0.5152 
     27 CA         25.3822   26.1942    0.7619 C.3       3 UNK         0.0319 
     28 CB         24.2629   27.0235    0.0962 C.3       3 UNK        -0.2001 
     29 N          25.6665   24.9793   -0.0117 N.am      3 UNK        -0.4354 
     30 C          26.1613   24.8965   -1.2554 C.2       2 UNK         0.4964 
     31 O          26.4567   25.8641   -1.9591 O.2       2 UNK        -0.5047 
     32 CA         26.3964   23.4715   -1.7862 C.3       2 UNK         0.0288 
     33 CB         25.7106   23.2628   -3.1472 C.3       2 UNK        -0.2113 
     34 N          27.8206   23.1573   -1.9126 N.am      2 UNK        -0.4145 
     35 C          28.7344   23.2023   -0.9330 C.2       1 UNK         0.5006 
     36 O          28.4636   23.5525    0.2179 O.2       1 UNK        -0.5103 
     37 C          27.7985   29.2579    5.0379 C.2       5 UNK         0.5055 
     38 O          28.0750   29.9606    6.0105 O.2       5 UNK        -0.5220 
     39 N          27.0456   29.6709    4.0067 N.am      6 UNK        -0.4450 
     40 CA         26.5306   31.0276    3.8284 C.3       6 UNK         0.0367 
     41 CB         24.9944   30.9822    3.7819 C.3       6 UNK        -0.1929 
     42 C          27.0827   31.6801    2.5513 C.2       6 UNK         0.5070 
     43 O          27.3612   32.8787    2.5699 O.2       6 UNK        -0.5237 
     44 N          27.2148   30.9058    1.4628 N.am      7 UNK        -0.4739 
     45 CA         27.6300   31.3961    0.1449 C.3       7 UNK         0.0276 
     46 CB         27.3077   30.3418   -0.9268 C.3       7 UNK        -0.1927 
     47 C          29.1088   31.8097    0.0785 C.2       7 UNK         0.5013 
     48 O          29.4171   32.8189   -0.5569 O.2       7 UNK        -0.5193 
     49 N          29.9873   31.0405    0.7356 N.am      8 UNK        -0.4253 
     50 CA         31.4014   31.3790    0.9120 C.3       8 UNK         0.0242 
     51 CB         32.2748   30.1234    0.7427 C.3       8 UNK        -0.2000 
     52 C          31.6249   32.0221    2.2866 C.2       8 UNK         0.4948 
     53 O          32.4009   32.9738    2.3858 O.2       8 UNK        -0.5275 
     54 N          30.9380   31.4988    3.3152 N.am      9 UNK        -0.4246 
     55 CA         30.9234   31.9177    4.7234 C.3       9 UNK         0.0261 
     56 CB         30.4300   33.3681    4.8910 C.3       9 UNK        -0.1959 
     57 C          32.2591   31.6770    5.4421 C.2       9 UNK         0.5033 
     58 O          32.2972   30.9251    6.4161 O.2       9 UNK        -0.5390 
     59 N          33.3458   32.2499    4.9136 N.am      10 UNK        -0.4215 
     60 CA         34.7301   32.0269    5.3393 C.3       10 UNK         0.0240 
     61 CB         35.5589   33.2827    5.0099 C.3       10 UNK        -0.1982 
     62 C          35.3154   30.7449    4.7090 C.2       10 UNK         0.4970 
     63 O          36.4532   30.7520    4.2360 O.2       10 UNK        -0.4916 
     64 N          34.5137   29.6745    4.6884 N.am      11 UNK        -0.4279 
     65 CA         34.8666   28.3521    4.1684 C.3       11 UNK         0.1003 
     66 C          35.8647   27.6205    5.1080 C.2       11 UNK         0.5709 
     67 N          36.8722   26.9576    4.5572 N.am      11 UNK        -0.7358 
     68 O          35.7122   27.6243    6.3284 O.2       11 UNK        -0.4999 
     69 C69        33.5810   27.5240    3.9105 C.3       12 UNK        -0.0954 
     70 S70        33.8713   26.1293    2.7729 S.3       12 UNK        -0.2268 
     71 C71        33.7788   24.7139    3.9119 C.3       12 UNK         0.0203 
     72 H72        29.1971   19.7673   -4.4892 H         1 UNK         0.0888 
     73 H73        30.8545   20.1988   -4.9197 H         1 UNK         0.0888 
     74 H74        30.5240   19.3810   -3.3913 H         1 UNK         0.0888 
     75 H75        30.5774   20.7684   -1.6367 H         1 UNK         0.3017 
     76 H76        30.5408   23.6297   -1.9245 H         1 UNK         0.0873 
     77 H77        32.1732   22.8291   -0.4636 H         1 UNK         0.0745 
     78 H78        31.0144   23.5617    0.5795 H         1 UNK         0.0745 
     79 H79        29.0956   21.8091    1.9837 H         1 UNK         0.0705 
     80 H80        30.0010   20.6461    2.9084 H         1 UNK         0.0705 
     81 H81        32.6279   22.7781    2.4319 H         1 UNK         0.1334 
     82 H82        31.8078   25.4649    5.6579 H         1 UNK         0.1417 
     83 H83        28.7634   22.7741    4.2945 H         1 UNK         0.1562 
     84 H84        29.6603   25.5840    6.6639 H         1 UNK         0.0748 
     85 H85        29.1438   23.9411    6.9443 H         1 UNK         0.0748 
     86 H86        27.5936   27.0782    6.9113 H         1 UNK         0.0940 
     87 H87        26.3674   27.1292    5.6797 H         1 UNK         0.0940 
     88 H88        29.3279   27.8172    5.4365 H         1 UNK         0.0703 
     89 H89        28.0341   26.4240    3.4343 H         1 UNK         0.3081 
     90 H90        29.2036   27.9639    0.5095 H         1 UNK         0.0719 
     91 H91        30.2281   25.3800    1.7804 H         1 UNK         0.0809 
     92 H92        30.2988   25.8019    0.0633 H         1 UNK         0.0809 
     93 H93        31.2378   26.7107    1.2338 H         1 UNK         0.0809 
     94 H94        27.8973   25.5133    0.7301 H         1 UNK         0.2990 
     95 H95        25.0017   25.8495    1.7244 H         1 UNK         0.0690 
     96 H96        23.3876   26.4106   -0.1184 H         1 UNK         0.0788 
     97 H97        24.5952   27.4751   -0.8391 H         1 UNK         0.0788 
     98 H98        23.9349   27.8351    0.7471 H         1 UNK         0.0788 
     99 H99        25.5070   24.1130    0.4847 H         1 UNK         0.2993 
    100 H100       25.9667   22.7566   -1.0813 H         1 UNK         0.0949 
    101 H101       25.8073   22.2311   -3.4863 H         1 UNK         0.0767 
    102 H102       24.6445   23.4854   -3.0856 H         1 UNK         0.0767 
    103 H103       26.1357   23.9091   -3.9165 H         1 UNK         0.0767 
    104 H104       28.1580   22.9137   -2.8396 H         1 UNK         0.3013 
    105 H105       26.8716   29.0229    3.2448 H         1 UNK         0.3121 
    106 H106       26.8268   31.6615    4.6671 H         1 UNK         0.0774 
    107 H107       24.6328   30.3580    2.9634 H         1 UNK         0.0815 
    108 H108       24.5779   31.9806    3.6416 H         1 UNK         0.0815 
    109 H109       24.5833   30.5870    4.7108 H         1 UNK         0.0815 
    110 H110       26.9233   29.9309    1.5043 H         1 UNK         0.2987 
    111 H111       27.0363   32.2861   -0.0766 H         1 UNK         0.0949 
    112 H112       27.8655   29.4187   -0.7724 H         1 UNK         0.0806 
    113 H113       26.2466   30.0917   -0.9308 H         1 UNK         0.0806 
    114 H114       27.5575   30.7097   -1.9229 H         1 UNK         0.0806 
    115 H115       29.6439   30.2494    1.2678 H         1 UNK         0.3010 
    116 H116       31.7131   32.1013    0.1543 H         1 UNK         0.0829 
    117 H117       32.0509   29.3585    1.4849 H         1 UNK         0.0813 
    118 H118       32.1396   29.6791   -0.2434 H         1 UNK         0.0813 
    119 H119       33.3323   30.3705    0.8447 H         1 UNK         0.0813 
    120 H120       30.4158   30.6456    3.1269 H         1 UNK         0.3038 
    121 H121       30.1919   31.2729    5.2095 H         1 UNK         0.0769 
    122 H122       30.3419   33.6273    5.9467 H         1 UNK         0.0811 
    123 H123       31.1059   34.0919    4.4354 H         1 UNK         0.0811 
    124 H124       29.4458   33.5020    4.4417 H         1 UNK         0.0811 
    125 H125       33.2079   32.7617    4.0433 H         1 UNK         0.3204 
    126 H126       34.7511   31.8882    6.4223 H         1 UNK         0.0748 
    127 H127       36.5848   33.1821    5.3668 H         1 UNK         0.0771 
    128 H128       35.6013   33.4662    3.9354 H         1 UNK         0.0771 
    129 H129       35.1393   34.1697    5.4849 H         1 UNK         0.0771 
    130 H130       33.6265   29.7456    5.1695 H         1 UNK         0.2980 
    131 H131       35.3588   28.5167    3.2073 H         1 UNK         0.0545 
    132 H132       37.5226   26.4693    5.1523 H         1 UNK         0.3459 
    133 H133       36.9914   26.9326    3.5565 H         1 UNK         0.3459 
    134 H134       32.8198   28.1500    3.4423 H         1 UNK         0.0616 
    135 H135       33.1413   27.1802    4.8471 H         1 UNK         0.0616 
    136 H136       34.1646   24.9893    4.8945 H         1 UNK         0.0634 
    137 H137       34.4393   23.9288    3.5408 H         1 UNK         0.0634 
@<TRIPOS>BOND
     1    1    2 1    
     2    1   72 1    
     3    1   73 1    
     4    1   74 1    
     5    2    3 2    
     6    2    4 am   BACKBONE|DICT|INTERRES
     7    4    5 1    
     8    4   75 1    
     9    5    6 1    
    10    5   35 1    
    11    5   76 1    
    12    6    7 1    
    13    6   77 1    
    14    6   78 1    
    15    7    8 1    
    16    8    9 1    
    17    8   79 1    
    18    8   80 1    
    19    9   10 ar   
    20    9   14 ar   
    21   10   11 ar   
    22   10   81 1    
    23   11   12 ar   
    24   11   71 1    
    25   12   13 ar   
    26   12   82 1    
    27   13   14 ar   
    28   13   15 1    
    29   14   83 1    
    30   15   16 1    
    31   15   84 1    
    32   15   85 1    
    33   16   17 1    
    34   17   18 1    
    35   17   86 1    
    36   17   87 1    
    37   18   19 1    
    38   18   37 1    
    39   18   88 1    
    40   19   20 am   BACKBONE|DICT|INTERRES
    41   19   89 1    
    42   20   21 2    
    43   20   22 1    
    44   22   23 1    
    45   22   24 1    
    46   22   90 1    
    47   23   91 1    
    48   23   92 1    
    49   23   93 1    
    50   24   25 am   BACKBONE|DICT|INTERRES
    51   24   94 1    
    52   25   26 2    
    53   25   27 1    
    54   27   28 1    
    55   27   29 1    
    56   27   95 1    
    57   28   96 1    
    58   28   97 1    
    59   28   98 1    
    60   29   30 am   BACKBONE|DICT|INTERRES
    61   29   99 1    
    62   30   31 2    
    63   30   32 1    
    64   32   33 1    
    65   32   34 1    
    66   32  100 1    
    67   33  101 1    
    68   33  102 1    
    69   33  103 1    
    70   34   35 am   BACKBONE|DICT|INTERRES
    71   34  104 1    
    72   35   36 2    
    73   37   38 2    
    74   37   39 am   BACKBONE|DICT|INTERRES
    75   39   40 1    
    76   39  105 1    
    77   40   41 1    
    78   40   42 1    
    79   40  106 1    
    80   41  107 1    
    81   41  108 1    
    82   41  109 1    
    83   42   43 2    
    84   42   44 am   BACKBONE|DICT|INTERRES
    85   44   45 1    
    86   44  110 1    
    87   45   46 1    
    88   45   47 1    
    89   45  111 1    
    90   46  112 1    
    91   46  113 1    
    92   46  114 1    
    93   47   48 2    
    94   47   49 am   BACKBONE|DICT|INTERRES
    95   49   50 1    
    96   49  115 1    
    97   50   51 1    
    98   50   52 1    
    99   50  116 1    
   100   51  117 1    
   101   51  118 1    
   102   51  119 1    
   103   52   53 2    
   104   52   54 am   BACKBONE|DICT|INTERRES
   105   54   55 1    
   106   54  120 1    
   107   55   56 1    
   108   55   57 1    
   109   55  121 1    
   110   56  122 1    
   111   56  123 1    
   112   56  124 1    
   113   57   58 2    
   114   57   59 am   BACKBONE|DICT|INTERRES
   115   59   60 1    
   116   59  125 1    
   117   60   61 1    
   118   60   62 1    
   119   60  126 1    
   120   61  127 1    
   121   61  128 1    
   122   61  129 1    
   123   62   63 2    
   124   62   64 am   BACKBONE|DICT|INTERRES
   125   64   65 1    
   126   64  130 1    
   127   65   66 1    
   128   65   69 1    
   129   65  131 1    
   130   66   67 am   BACKBONE|DICT|INTERRES
   131   66   68 2    
   132   67  132 1    
   133   67  133 1    
   134   69   70 1    
   135   69  134 1    
   136   69  135 1    
   137   70   71 1    
   138   71  136 1    
   139   71  137 1    
@<TRIPOS>SUBSTRUCTURE
     1 UNK         1 GROUP             0       ****    0 ROOT    
