@<TRIPOS>MOLECULE
3R136
137   139    1
SMALL
USER_CHARGES


@<TRIPOS>ATOM
      1 CA         30.3543   24.3659   -2.7435 C.3       0 UNK        -0.1979 
      2 C          30.0571   22.9455   -3.2093 C.2       0 UNK         0.4864 
      3 O          30.1628   22.6682   -4.4034 O.2       0 UNK        -0.5359 
      4 N          29.6987   22.0115   -2.3186 N.am      1 UNK        -0.4318 
      5 CA         29.4709   22.1783   -0.8753 C.3       1 UNK         0.0824 
      6 C6         29.7626   20.8516   -0.1248 C.3       12 UNK        -0.0944 
      7 S7         31.5403   20.4405   -0.2113 S.3       12 UNK        -0.2672 
      8 C8         32.0257   20.3368    1.5434 C.3       12 UNK         0.0333 
      9 C9         31.7834   21.6290    2.3155 C.ar      12 UNK        -0.0807 
     10 C10        32.5227   22.7814    2.0269 C.ar      12 UNK        -0.0894 
     11 C11        32.3219   23.9579    2.7574 C.ar      12 UNK        -0.0804 
     12 C12        31.3770   23.9605    3.7879 C.ar      12 UNK        -0.0824 
     13 C13        30.6221   22.8219    4.0895 C.ar      12 UNK        -0.0762 
     14 C14        30.8367   21.6590    3.3448 C.ar      12 UNK        -0.0782 
     15 C15        29.5908   22.7897    5.2234 C.3       12 UNK         0.0230 
     16 S16        29.0404   24.4138    5.8689 S.3       12 UNK        -0.2608 
     17 C17        28.2050   25.1308    4.4161 C.3       12 UNK        -0.0989 
     18 CA         28.8048   26.5041    3.9988 C.3       5 UNK         0.0716 
     19 N          28.9914   26.5984    2.5496 N.am      5 UNK        -0.4135 
     20 C          29.8679   27.4058    1.9366 C.2       4 UNK         0.5031 
     21 O          30.7142   28.0697    2.5314 O.2       4 UNK        -0.5229 
     22 CA         29.8133   27.4791    0.3977 C.3       4 UNK         0.0329 
     23 CB         30.9991   26.7296   -0.2267 C.3       4 UNK        -0.2001 
     24 N          28.5690   26.9573   -0.1715 N.am      4 UNK        -0.4303 
     25 C          27.3768   27.5632   -0.0916 C.2       3 UNK         0.5044 
     26 O          27.1978   28.6573    0.4410 O.2       3 UNK        -0.5152 
     27 CA         26.1757   26.7569   -0.6155 C.3       3 UNK         0.0319 
     28 CB         26.0653   26.8724   -2.1437 C.3       3 UNK        -0.2001 
     29 N          26.2393   25.3408   -0.2307 N.am      3 UNK        -0.4354 
     30 C          26.2557   24.8928    1.0318 C.2       2 UNK         0.4964 
     31 O          26.2044   25.6353    2.0124 O.2       2 UNK        -0.5047 
     32 CA         26.4400   23.3820    1.2474 C.3       2 UNK         0.0288 
     33 CB         25.2124   22.5776    0.7738 C.3       2 UNK        -0.2113 
     34 N          27.7021   22.8652    0.6916 N.am      2 UNK        -0.4145 
     35 C          28.0461   22.7154   -0.5977 C.2       1 UNK         0.5006 
     36 O          27.3035   23.0188   -1.5358 O.2       1 UNK        -0.5103 
     37 C          27.9548   27.6856    4.5034 C.2       5 UNK         0.5055 
     38 O          28.2659   28.2607    5.5468 O.2       5 UNK        -0.5220 
     39 N          26.9063   28.0341    3.7420 N.am      6 UNK        -0.4450 
     40 CA         26.0505   29.1950    3.9877 C.3       6 UNK         0.0367 
     41 CB         24.7793   29.0822    3.1309 C.3       6 UNK        -0.1929 
     42 C          26.7701   30.5296    3.7236 C.2       6 UNK         0.5070 
     43 O          26.5639   31.4834    4.4748 O.2       6 UNK        -0.5237 
     44 N          27.5899   30.5817    2.6644 N.am      7 UNK        -0.4739 
     45 CA         28.3832   31.7499    2.2831 C.3       7 UNK         0.0276 
     46 CB         28.9078   31.5668    0.8494 C.3       7 UNK        -0.1927 
     47 C          29.5419   31.9927    3.2642 C.2       7 UNK         0.5013 
     48 O          30.5380   31.2663    3.2298 O.2       7 UNK        -0.5193 
     49 N          29.4181   33.0421    4.0885 N.am      8 UNK        -0.4253 
     50 CA         30.4224   33.4746    5.0705 C.3       8 UNK         0.0242 
     51 CB         29.8465   34.6309    5.9041 C.3       8 UNK        -0.2000 
     52 C          31.7807   33.8753    4.4612 C.2       8 UNK         0.4948 
     53 O          32.7926   33.8279    5.1606 O.2       8 UNK        -0.5275 
     54 N          31.7831   34.2451    3.1727 N.am      9 UNK        -0.4246 
     55 CA         32.9808   34.5230    2.3780 C.3       9 UNK         0.0261 
     56 CB         32.5680   35.2829    1.1061 C.3       9 UNK        -0.1959 
     57 C          33.7874   33.2608    2.0106 C.2       9 UNK         0.5033 
     58 O          34.9582   33.3962    1.6506 O.2       9 UNK        -0.5390 
     59 N          33.1630   32.0765    2.0855 N.am      10 UNK        -0.4215 
     60 CA         33.7869   30.7788    1.8414 C.3       10 UNK         0.0240 
     61 CB         32.9070   29.9686    0.8720 C.3       10 UNK        -0.1982 
     62 C          34.0467   30.1036    3.1980 C.2       10 UNK         0.4970 
     63 O          34.9121   30.5840    3.9324 O.2       10 UNK        -0.4916 
     64 N          33.3254   29.0217    3.5207 N.am      11 UNK        -0.4279 
     65 CA         33.4180   28.3491    4.8273 C.3       11 UNK         0.1003 
     66 C          32.5875   29.0510    5.9406 C.2       11 UNK         0.5709 
     67 N          31.6437   29.9305    5.6270 N.am      11 UNK        -0.7358 
     68 O          32.8126   28.7944    7.1211 O.2       11 UNK        -0.4999 
     69 C69        33.0417   26.8485    4.7424 C.3       12 UNK        -0.0954 
     70 S70        34.1800   25.8418    3.7268 S.3       12 UNK        -0.2268 
     71 C71        33.0905   25.2294    2.3987 C.3       12 UNK         0.0203 
     72 H72        31.2215   24.3746   -2.0843 H         1 UNK         0.0888 
     73 H73        30.5782   25.0089   -3.5945 H         1 UNK         0.0888 
     74 H74        29.4988   24.7932   -2.2241 H         1 UNK         0.0888 
     75 H75        29.4990   21.0857   -2.6676 H         1 UNK         0.3017 
     76 H76        30.1600   22.9315   -0.4887 H         1 UNK         0.0873 
     77 H77        29.4651   20.8991    0.9227 H         1 UNK         0.0745 
     78 H78        29.1914   20.0280   -0.5573 H         1 UNK         0.0745 
     79 H79        33.0862   20.0867    1.5975 H         1 UNK         0.0705 
     80 H80        31.4950   19.5022    2.0043 H         1 UNK         0.0705 
     81 H81        33.2507   22.7588    1.2272 H         1 UNK         0.1334 
     82 H82        31.2295   24.8532    4.3658 H         1 UNK         0.1417 
     83 H83        30.2715   20.7663    3.5783 H         1 UNK         0.1562 
     84 H84        30.0169   22.2245    6.0533 H         1 UNK         0.0748 
     85 H85        28.7082   22.2365    4.8981 H         1 UNK         0.0748 
     86 H86        27.1338   25.1897    4.6216 H         1 UNK         0.0940 
     87 H87        28.2924   24.4169    3.5970 H         1 UNK         0.0940 
     88 H88        29.7848   26.6182    4.4618 H         1 UNK         0.0703 
     89 H89        28.3002   26.1236    1.9874 H         1 UNK         0.3081 
     90 H90        29.8977   28.5301    0.1186 H         1 UNK         0.0719 
     91 H91        30.9852   25.6682    0.0232 H         1 UNK         0.0809 
     92 H92        31.0006   26.8285   -1.3120 H         1 UNK         0.0809 
     93 H93        31.9473   27.1352    0.1240 H         1 UNK         0.0809 
     94 H94        28.6129   26.0587   -0.6256 H         1 UNK         0.2990 
     95 H95        25.2733   27.1831   -0.1720 H         1 UNK         0.0690 
     96 H96        26.9227   26.4257   -2.6490 H         1 UNK         0.0788 
     97 H97        26.0106   27.9172   -2.4532 H         1 UNK         0.0788 
     98 H98        25.1658   26.3794   -2.5130 H         1 UNK         0.0788 
     99 H99        26.3382   24.6533   -0.9724 H         1 UNK         0.2993 
    100 H100       26.5115   23.2325    2.3261 H         1 UNK         0.0949 
    101 H101       25.0299   22.6829   -0.2957 H         1 UNK         0.0767 
    102 H102       25.3302   21.5155    0.9888 H         1 UNK         0.0767 
    103 H103       24.3100   22.9126    1.2870 H         1 UNK         0.0767 
    104 H104       28.3917   22.6134    1.3861 H         1 UNK         0.3013 
    105 H105       26.6846   27.4660    2.9322 H         1 UNK         0.3121 
    106 H106       25.7543   29.1801    5.0389 H         1 UNK         0.0774 
    107 H107       24.1077   29.9210    3.3190 H         1 UNK         0.0815 
    108 H108       25.0080   29.0808    2.0644 H         1 UNK         0.0815 
    109 H109       24.2285   28.1688    3.3561 H         1 UNK         0.0815 
    110 H110       27.6548   29.7699    2.0588 H         1 UNK         0.2987 
    111 H111       27.7262   32.6225    2.2862 H         1 UNK         0.0949 
    112 H112       29.5705   30.7060    0.7714 H         1 UNK         0.0806 
    113 H113       28.0907   31.4237    0.1420 H         1 UNK         0.0806 
    114 H114       29.4721   32.4414    0.5236 H         1 UNK         0.0806 
    115 H115       28.5534   33.5647    4.0718 H         1 UNK         0.3010 
    116 H116       30.6085   32.6326    5.7395 H         1 UNK         0.0829 
    117 H117       30.5576   34.9558    6.6652 H         1 UNK         0.0813 
    118 H118       29.6131   35.4983    5.2852 H         1 UNK         0.0813 
    119 H119       28.9355   34.3318    6.4230 H         1 UNK         0.0813 
    120 H120       30.8984   34.2796    2.6881 H         1 UNK         0.3038 
    121 H121       33.6371   35.1692    2.9650 H         1 UNK         0.0769 
    122 H122       33.4411   35.5396    0.5044 H         1 UNK         0.0811 
    123 H123       32.0590   36.2162    1.3477 H         1 UNK         0.0811 
    124 H124       31.9035   34.6885    0.4775 H         1 UNK         0.0811 
    125 H125       32.2177   32.0391    2.4551 H         1 UNK         0.3204 
    126 H126       34.7622   30.9039    1.3668 H         1 UNK         0.0748 
    127 H127       33.2939   28.9581    0.7388 H         1 UNK         0.0771 
    128 H128       31.8772   29.9003    1.2181 H         1 UNK         0.0771 
    129 H129       32.8857   30.4350   -0.1129 H         1 UNK         0.0771 
    130 H130       32.5579   28.7239    2.9258 H         1 UNK         0.2980 
    131 H131       34.4565   28.3935    5.1612 H         1 UNK         0.0545 
    132 H132       31.4164   30.1455    4.6621 H         1 UNK         0.3459 
    133 H133       31.1130   30.3521    6.3702 H         1 UNK         0.3459 
    134 H134       33.0193   26.3942    5.7348 H         1 UNK         0.0616 
    135 H135       32.0320   26.7773    4.3509 H         1 UNK         0.0616 
    136 H136       33.7039   25.0608    1.5125 H         1 UNK         0.0634 
    137 H137       32.3874   26.0130    2.1309 H         1 UNK         0.0634 
@<TRIPOS>BOND
     1    1    2 1    
     2    1   72 1    
     3    1   73 1    
     4    1   74 1    
     5    2    3 2    
     6    2    4 am   BACKBONE|DICT|INTERRES
     7    4    5 1    
     8    4   75 1    
     9    5    6 1    
    10    5   35 1    
    11    5   76 1    
    12    6    7 1    
    13    6   77 1    
    14    6   78 1    
    15    7    8 1    
    16    8    9 1    
    17    8   79 1    
    18    8   80 1    
    19    9   10 ar   
    20    9   14 ar   
    21   10   11 ar   
    22   10   81 1    
    23   11   12 ar   
    24   11   71 1    
    25   12   13 ar   
    26   12   82 1    
    27   13   14 ar   
    28   13   15 1    
    29   14   83 1    
    30   15   16 1    
    31   15   84 1    
    32   15   85 1    
    33   16   17 1    
    34   17   18 1    
    35   17   86 1    
    36   17   87 1    
    37   18   19 1    
    38   18   37 1    
    39   18   88 1    
    40   19   20 am   BACKBONE|DICT|INTERRES
    41   19   89 1    
    42   20   21 2    
    43   20   22 1    
    44   22   23 1    
    45   22   24 1    
    46   22   90 1    
    47   23   91 1    
    48   23   92 1    
    49   23   93 1    
    50   24   25 am   BACKBONE|DICT|INTERRES
    51   24   94 1    
    52   25   26 2    
    53   25   27 1    
    54   27   28 1    
    55   27   29 1    
    56   27   95 1    
    57   28   96 1    
    58   28   97 1    
    59   28   98 1    
    60   29   30 am   BACKBONE|DICT|INTERRES
    61   29   99 1    
    62   30   31 2    
    63   30   32 1    
    64   32   33 1    
    65   32   34 1    
    66   32  100 1    
    67   33  101 1    
    68   33  102 1    
    69   33  103 1    
    70   34   35 am   BACKBONE|DICT|INTERRES
    71   34  104 1    
    72   35   36 2    
    73   37   38 2    
    74   37   39 am   BACKBONE|DICT|INTERRES
    75   39   40 1    
    76   39  105 1    
    77   40   41 1    
    78   40   42 1    
    79   40  106 1    
    80   41  107 1    
    81   41  108 1    
    82   41  109 1    
    83   42   43 2    
    84   42   44 am   BACKBONE|DICT|INTERRES
    85   44   45 1    
    86   44  110 1    
    87   45   46 1    
    88   45   47 1    
    89   45  111 1    
    90   46  112 1    
    91   46  113 1    
    92   46  114 1    
    93   47   48 2    
    94   47   49 am   BACKBONE|DICT|INTERRES
    95   49   50 1    
    96   49  115 1    
    97   50   51 1    
    98   50   52 1    
    99   50  116 1    
   100   51  117 1    
   101   51  118 1    
   102   51  119 1    
   103   52   53 2    
   104   52   54 am   BACKBONE|DICT|INTERRES
   105   54   55 1    
   106   54  120 1    
   107   55   56 1    
   108   55   57 1    
   109   55  121 1    
   110   56  122 1    
   111   56  123 1    
   112   56  124 1    
   113   57   58 2    
   114   57   59 am   BACKBONE|DICT|INTERRES
   115   59   60 1    
   116   59  125 1    
   117   60   61 1    
   118   60   62 1    
   119   60  126 1    
   120   61  127 1    
   121   61  128 1    
   122   61  129 1    
   123   62   63 2    
   124   62   64 am   BACKBONE|DICT|INTERRES
   125   64   65 1    
   126   64  130 1    
   127   65   66 1    
   128   65   69 1    
   129   65  131 1    
   130   66   67 am   BACKBONE|DICT|INTERRES
   131   66   68 2    
   132   67  132 1    
   133   67  133 1    
   134   69   70 1    
   135   69  134 1    
   136   69  135 1    
   137   70   71 1    
   138   71  136 1    
   139   71  137 1    
@<TRIPOS>SUBSTRUCTURE
     1 UNK         1 GROUP             0       ****    0 ROOT    
