@<TRIPOS>MOLECULE
3R136
137   139    1
SMALL
USER_CHARGES


@<TRIPOS>ATOM
      1 CA         30.5947   27.6943    0.8739 C.3       0 UNK        -0.1979 
      2 C          30.1909   26.2369    0.7270 C.2       0 UNK         0.4864 
      3 O          29.0006   25.9357    0.6369 O.2       0 UNK        -0.5359 
      4 N          31.1684   25.3214    0.6607 N.am      1 UNK        -0.4318 
      5 CA         30.9711   23.8720    0.5105 C.3       1 UNK         0.0824 
      6 C6         32.2042   23.0828    1.0280 C.3       12 UNK        -0.0944 
      7 S7         31.7458   21.4161    1.6153 S.3       12 UNK        -0.2672 
      8 C8         31.7746   21.6303    3.4242 C.3       12 UNK         0.0333 
      9 C9         30.7769   22.6766    3.9044 C.ar      12 UNK        -0.0807 
     10 C10        31.2308   23.8815    4.4508 C.ar      12 UNK        -0.0894 
     11 C11        30.3212   24.8361    4.9136 C.ar      12 UNK        -0.0804 
     12 C12        28.9523   24.5731    4.8387 C.ar      12 UNK        -0.0824 
     13 C13        28.4810   23.3811    4.2813 C.ar      12 UNK        -0.0762 
     14 C14        29.4013   22.4343    3.8180 C.ar      12 UNK        -0.0782 
     15 C15        26.9844   23.0989    4.2129 C.3       12 UNK         0.0230 
     16 S16        26.1342   24.0966    2.9430 S.3       12 UNK        -0.2608 
     17 C17        25.8453   25.6733    3.8217 C.3       12 UNK        -0.0989 
     18 CA         26.6454   26.8421    3.1927 C.3       5 UNK         0.0716 
     19 N          26.1106   27.1742    1.8656 N.am      5 UNK        -0.4135 
     20 C          26.5835   28.0736    0.9943 C.2       4 UNK         0.5031 
     21 O          27.4592   28.8927    1.2733 O.2       4 UNK        -0.5229 
     22 CA         25.9603   28.0623   -0.4189 C.3       4 UNK         0.0329 
     23 CB         26.7020   29.0007   -1.3896 C.3       4 UNK        -0.2001 
     24 N          25.9136   26.7209   -1.0121 N.am      4 UNK        -0.4303 
     25 C          25.0726   25.7318   -0.6863 C.2       3 UNK         0.5044 
     26 O          24.1947   25.8559    0.1690 O.2       3 UNK        -0.5152 
     27 CA         25.2424   24.3674   -1.3847 C.3       3 UNK         0.0319 
     28 CB         24.3001   24.2481   -2.5986 C.3       3 UNK        -0.2001 
     29 N          26.6263   24.0033   -1.7347 N.am      3 UNK        -0.4354 
     30 C          27.4393   24.5584   -2.6461 C.2       2 UNK         0.4964 
     31 O          27.1312   25.5280   -3.3405 O.2       2 UNK        -0.5047 
     32 CA         28.8569   23.9756   -2.7231 C.3       2 UNK         0.0288 
     33 CB         29.7304   24.6507   -3.8022 C.3       2 UNK        -0.2113 
     34 N          29.4665   24.1236   -1.4062 N.am      2 UNK        -0.4145 
     35 C          30.5368   23.4834   -0.9277 C.2       1 UNK         0.5006 
     36 O          31.1689   22.6464   -1.5758 O.2       1 UNK        -0.5103 
     37 C          26.7502   28.0278    4.1785 C.2       5 UNK         0.5055 
     38 O          27.4966   27.9270    5.1529 O.2       5 UNK        -0.5220 
     39 N          26.0183   29.1216    3.9270 N.am      6 UNK        -0.4450 
     40 CA         26.1038   30.3701    4.6867 C.3       6 UNK         0.0367 
     41 CB         24.8743   31.2358    4.3674 C.3       6 UNK        -0.1929 
     42 C          27.3991   31.1642    4.4246 C.2       6 UNK         0.5070 
     43 O          27.7727   31.9865    5.2630 O.2       6 UNK        -0.5237 
     44 N          28.0617   30.9345    3.2809 N.am      7 UNK        -0.4739 
     45 CA         29.2808   31.6321    2.8675 C.3       7 UNK         0.0276 
     46 CB         29.4079   31.5670    1.3338 C.3       7 UNK        -0.1927 
     47 C          30.5250   31.0752    3.5811 C.2       7 UNK         0.5013 
     48 O          31.3862   30.4713    2.9403 O.2       7 UNK        -0.5193 
     49 N          30.6226   31.3176    4.8954 N.am      8 UNK        -0.4253 
     50 CA         31.7311   30.8946    5.7641 C.3       8 UNK         0.0242 
     51 CB         31.4673   31.3775    7.1983 C.3       8 UNK        -0.2000 
     52 C          33.1265   31.3480    5.2894 C.2       8 UNK         0.4948 
     53 O          34.1041   30.6307    5.5052 O.2       8 UNK        -0.5275 
     54 N          33.1880   32.5001    4.6064 N.am      9 UNK        -0.4246 
     55 CA         34.3866   33.0188    3.9433 C.3       9 UNK         0.0261 
     56 CB         34.1246   34.4620    3.4830 C.3       9 UNK        -0.1959 
     57 C          34.8635   32.1552    2.7586 C.2       9 UNK         0.5033 
     58 O          36.0605   32.1588    2.4679 O.2       9 UNK        -0.5390 
     59 N          33.9411   31.4355    2.1020 N.am      10 UNK        -0.4215 
     60 CA         34.2469   30.4711    1.0446 C.3       10 UNK         0.0240 
     61 CB         33.0936   30.4247    0.0283 C.3       10 UNK        -0.1982 
     62 C          34.5412   29.0762    1.6209 C.2       10 UNK         0.4970 
     63 O          35.3381   28.3495    1.0263 O.2       10 UNK        -0.4916 
     64 N          33.9239   28.7285    2.7614 N.am      11 UNK        -0.4279 
     65 CA         34.2464   27.5210    3.5416 C.3       11 UNK         0.1003 
     66 C          35.7021   27.5343    4.0842 C.2       11 UNK         0.5709 
     67 N          36.1460   28.6328    4.6844 N.am      11 UNK        -0.7358 
     68 O          36.4246   26.5484    3.9608 O.2       11 UNK        -0.4999 
     69 C69        33.2632   27.2706    4.7146 C.3       12 UNK        -0.0954 
     70 S70        31.5112   27.2311    4.2241 S.3       12 UNK        -0.2268 
     71 C71        30.8079   26.1492    5.5055 C.3       12 UNK         0.0203 
     72 H72        31.6645   27.8028    1.0464 H         1 UNK         0.0888 
     73 H73        30.0715   28.1435    1.7179 H         1 UNK         0.0888 
     74 H74        30.3280   28.2516   -0.0233 H         1 UNK         0.0888 
     75 H75        32.1298   25.6267    0.6999 H         1 UNK         0.3017 
     76 H76        30.1275   23.6150    1.1557 H         1 UNK         0.0873 
     77 H77        32.6746   23.6146    1.8564 H         1 UNK         0.0745 
     78 H78        32.9799   22.9984    0.2647 H         1 UNK         0.0745 
     79 H79        31.5436   20.6739    3.8953 H         1 UNK         0.0705 
     80 H80        32.7885   21.8858    3.7364 H         1 UNK         0.0705 
     81 H81        32.2914   24.0818    4.5155 H         1 UNK         0.1334 
     82 H82        28.2566   25.3056    5.2178 H         1 UNK         0.1417 
     83 H83        29.0513   21.5032    3.3931 H         1 UNK         0.1562 
     84 H84        26.5290   23.2647    5.1902 H         1 UNK         0.0748 
     85 H85        26.8139   22.0460    3.9833 H         1 UNK         0.0748 
     86 H86        26.0801   25.5447    4.8792 H         1 UNK         0.0940 
     87 H87        24.7757   25.8902    3.7949 H         1 UNK         0.0940 
     88 H88        27.6728   26.5090    3.0304 H         1 UNK         0.0703 
     89 H89        25.3799   26.5580    1.5222 H         1 UNK         0.3081 
     90 H90        24.9366   28.4279   -0.3179 H         1 UNK         0.0719 
     91 H91        27.7421   28.6985   -1.5208 H         1 UNK         0.0809 
     92 H92        26.2288   29.0130   -2.3715 H         1 UNK         0.0809 
     93 H93        26.7046   30.0270   -1.0196 H         1 UNK         0.0809 
     94 H94        26.5834   26.5251   -1.7487 H         1 UNK         0.2990 
     95 H95        24.9267   23.6180   -0.6568 H         1 UNK         0.0690 
     96 H96        24.3606   23.2589   -3.0523 H         1 UNK         0.0788 
     97 H97        24.5281   24.9858   -3.3685 H         1 UNK         0.0788 
     98 H98        23.2625   24.4047   -2.3006 H         1 UNK         0.0788 
     99 H99        27.0087   23.2462   -1.1843 H         1 UNK         0.2993 
    100 H100       28.7652   22.9130   -2.9579 H         1 UNK         0.0949 
    101 H101       29.2644   24.5749   -4.7855 H         1 UNK         0.0767 
    102 H102       29.8824   25.7099   -3.5910 H         1 UNK         0.0767 
    103 H103       30.7112   24.1806   -3.8751 H         1 UNK         0.0767 
    104 H104       29.0345   24.8086   -0.7845 H         1 UNK         0.3013 
    105 H105       25.4376   29.1262    3.1015 H         1 UNK         0.3121 
    106 H106       26.0817   30.1259    5.7511 H         1 UNK         0.0774 
    107 H107       23.9477   30.7185    4.6168 H         1 UNK         0.0815 
    108 H108       24.8354   31.5091    3.3121 H         1 UNK         0.0815 
    109 H109       24.8904   32.1626    4.9429 H         1 UNK         0.0815 
    110 H110       27.7338   30.2038    2.6527 H         1 UNK         0.2987 
    111 H111       29.1930   32.6859    3.1412 H         1 UNK         0.0949 
    112 H112       29.5200   30.5422    0.9797 H         1 UNK         0.0806 
    113 H113       28.5333   31.9943    0.8437 H         1 UNK         0.0806 
    114 H114       30.2793   32.1255    0.9898 H         1 UNK         0.0806 
    115 H115       29.8331   31.7754    5.3396 H         1 UNK         0.3010 
    116 H116       31.7315   29.8040    5.7697 H         1 UNK         0.0829 
    117 H117       30.5320   30.9739    7.5868 H         1 UNK         0.0813 
    118 H118       32.2624   31.0536    7.8716 H         1 UNK         0.0813 
    119 H119       31.4138   32.4654    7.2550 H         1 UNK         0.0813 
    120 H120       32.3361   33.0288    4.4889 H         1 UNK         0.3038 
    121 H121       35.1931   33.0353    4.6797 H         1 UNK         0.0769 
    122 H122       33.3120   34.5143    2.7571 H         1 UNK         0.0811 
    123 H123       35.0111   34.8871    3.0101 H         1 UNK         0.0811 
    124 H124       33.8682   35.1073    4.3235 H         1 UNK         0.0811 
    125 H125       32.9824   31.4298    2.4381 H         1 UNK         0.3204 
    126 H126       35.1412   30.7967    0.5088 H         1 UNK         0.0748 
    127 H127       32.9468   31.3958   -0.4444 H         1 UNK         0.0771 
    128 H128       33.3013   29.7060   -0.7655 H         1 UNK         0.0771 
    129 H129       32.1507   30.1361    0.4901 H         1 UNK         0.0771 
    130 H130       33.2241   29.3453    3.1537 H         1 UNK         0.2980 
    131 H131       34.1629   26.6723    2.8600 H         1 UNK         0.0545 
    132 H132       37.0879   28.6592    5.0399 H         1 UNK         0.3459 
    133 H133       35.5165   29.4122    4.8504 H         1 UNK         0.3459 
    134 H134       33.5100   26.3198    5.1903 H         1 UNK         0.0616 
    135 H135       33.3752   28.0328    5.4866 H         1 UNK         0.0616 
    136 H136       29.9853   26.6836    5.9833 H         1 UNK         0.0634 
    137 H137       31.5332   25.9501    6.2951 H         1 UNK         0.0634 
@<TRIPOS>BOND
     1    1    2 1    
     2    1   72 1    
     3    1   73 1    
     4    1   74 1    
     5    2    3 2    
     6    2    4 am   BACKBONE|DICT|INTERRES
     7    4    5 1    
     8    4   75 1    
     9    5    6 1    
    10    5   35 1    
    11    5   76 1    
    12    6    7 1    
    13    6   77 1    
    14    6   78 1    
    15    7    8 1    
    16    8    9 1    
    17    8   79 1    
    18    8   80 1    
    19    9   10 ar   
    20    9   14 ar   
    21   10   11 ar   
    22   10   81 1    
    23   11   12 ar   
    24   11   71 1    
    25   12   13 ar   
    26   12   82 1    
    27   13   14 ar   
    28   13   15 1    
    29   14   83 1    
    30   15   16 1    
    31   15   84 1    
    32   15   85 1    
    33   16   17 1    
    34   17   18 1    
    35   17   86 1    
    36   17   87 1    
    37   18   19 1    
    38   18   37 1    
    39   18   88 1    
    40   19   20 am   BACKBONE|DICT|INTERRES
    41   19   89 1    
    42   20   21 2    
    43   20   22 1    
    44   22   23 1    
    45   22   24 1    
    46   22   90 1    
    47   23   91 1    
    48   23   92 1    
    49   23   93 1    
    50   24   25 am   BACKBONE|DICT|INTERRES
    51   24   94 1    
    52   25   26 2    
    53   25   27 1    
    54   27   28 1    
    55   27   29 1    
    56   27   95 1    
    57   28   96 1    
    58   28   97 1    
    59   28   98 1    
    60   29   30 am   BACKBONE|DICT|INTERRES
    61   29   99 1    
    62   30   31 2    
    63   30   32 1    
    64   32   33 1    
    65   32   34 1    
    66   32  100 1    
    67   33  101 1    
    68   33  102 1    
    69   33  103 1    
    70   34   35 am   BACKBONE|DICT|INTERRES
    71   34  104 1    
    72   35   36 2    
    73   37   38 2    
    74   37   39 am   BACKBONE|DICT|INTERRES
    75   39   40 1    
    76   39  105 1    
    77   40   41 1    
    78   40   42 1    
    79   40  106 1    
    80   41  107 1    
    81   41  108 1    
    82   41  109 1    
    83   42   43 2    
    84   42   44 am   BACKBONE|DICT|INTERRES
    85   44   45 1    
    86   44  110 1    
    87   45   46 1    
    88   45   47 1    
    89   45  111 1    
    90   46  112 1    
    91   46  113 1    
    92   46  114 1    
    93   47   48 2    
    94   47   49 am   BACKBONE|DICT|INTERRES
    95   49   50 1    
    96   49  115 1    
    97   50   51 1    
    98   50   52 1    
    99   50  116 1    
   100   51  117 1    
   101   51  118 1    
   102   51  119 1    
   103   52   53 2    
   104   52   54 am   BACKBONE|DICT|INTERRES
   105   54   55 1    
   106   54  120 1    
   107   55   56 1    
   108   55   57 1    
   109   55  121 1    
   110   56  122 1    
   111   56  123 1    
   112   56  124 1    
   113   57   58 2    
   114   57   59 am   BACKBONE|DICT|INTERRES
   115   59   60 1    
   116   59  125 1    
   117   60   61 1    
   118   60   62 1    
   119   60  126 1    
   120   61  127 1    
   121   61  128 1    
   122   61  129 1    
   123   62   63 2    
   124   62   64 am   BACKBONE|DICT|INTERRES
   125   64   65 1    
   126   64  130 1    
   127   65   66 1    
   128   65   69 1    
   129   65  131 1    
   130   66   67 am   BACKBONE|DICT|INTERRES
   131   66   68 2    
   132   67  132 1    
   133   67  133 1    
   134   69   70 1    
   135   69  134 1    
   136   69  135 1    
   137   70   71 1    
   138   71  136 1    
   139   71  137 1    
@<TRIPOS>SUBSTRUCTURE
     1 UNK         1 GROUP             0       ****    0 ROOT    
