@<TRIPOS>MOLECULE
3R136
137   139    1
SMALL
USER_CHARGES


@<TRIPOS>ATOM
      1 CA         26.9786   18.3437    1.0902 C.3       0 UNK        -0.1979 
      2 C          27.2470   19.4038    0.0320 C.2       0 UNK         0.4864 
      3 O          26.6922   19.3266   -1.0658 O.2       0 UNK        -0.5359 
      4 N          28.0998   20.3857    0.3505 N.am      1 UNK        -0.4318 
      5 CA         28.4397   21.5163   -0.5210 C.3       1 UNK         0.0824 
      6 C6         29.7144   22.2523   -0.0436 C.3       12 UNK        -0.0944 
      7 S7         31.1721   21.1584    0.0725 S.3       12 UNK        -0.2672 
      8 C8         31.8081   21.5685    1.7408 C.3       12 UNK         0.0333 
      9 C9         32.3757   22.9817    1.9207 C.ar      12 UNK        -0.0807 
     10 C10        32.8071   23.3717    3.1946 C.ar      12 UNK        -0.0894 
     11 C11        33.3383   24.6476    3.4160 C.ar      12 UNK        -0.0804 
     12 C12        33.4298   25.5468    2.3502 C.ar      12 UNK        -0.0824 
     13 C13        32.9795   25.1846    1.0790 C.ar      12 UNK        -0.0762 
     14 C14        32.4810   23.8989    0.8665 C.ar      12 UNK        -0.0782 
     15 C15        33.0057   26.1792   -0.0712 C.3       12 UNK         0.0230 
     16 S16        31.3260   26.7536   -0.4864 S.3       12 UNK        -0.2608 
     17 C17        30.9671   27.8306    0.9397 C.3       12 UNK        -0.0989 
     18 CA         29.4509   27.9701    1.2489 C.3       5 UNK         0.0716 
     19 N          28.7750   26.6931    1.5233 N.am      5 UNK        -0.4135 
     20 C          28.9204   25.9223    2.6150 C.2       4 UNK         0.5031 
     21 O          29.7818   26.1175    3.4691 O.2       4 UNK        -0.5229 
     22 CA         27.8946   24.7841    2.8358 C.3       4 UNK         0.0329 
     23 CB         27.5909   24.5621    4.3324 C.3       4 UNK        -0.2001 
     24 N          26.6407   24.9431    2.0850 N.am      4 UNK        -0.4303 
     25 C          25.8102   26.0000    2.0975 C.2       3 UNK         0.5044 
     26 O          25.9549   26.9654    2.8481 O.2       3 UNK        -0.5152 
     27 CA         24.6828   26.0237    1.0413 C.3       3 UNK         0.0319 
     28 CB         24.2916   27.4630    0.6431 C.3       3 UNK        -0.2001 
     29 N          24.9786   25.2285   -0.1605 N.am      3 UNK        -0.4354 
     30 C          26.0519   25.3308   -0.9611 C.2       2 UNK         0.4964 
     31 O          26.9521   26.1617   -0.8148 O.2       2 UNK        -0.5047 
     32 CA         26.1775   24.2574   -2.0573 C.3       2 UNK         0.0288 
     33 CB         26.5054   24.8945   -3.4187 C.3       2 UNK        -0.2113 
     34 N          27.1966   23.2481   -1.7411 N.am      2 UNK        -0.4145 
     35 C          27.2619   22.5081   -0.6226 C.2       1 UNK         0.5006 
     36 O          26.4674   22.6087    0.3178 O.2       1 UNK        -0.5103 
     37 C          29.1951   29.0438    2.3398 C.2       5 UNK         0.5055 
     38 O          29.9919   29.9747    2.4579 O.2       5 UNK        -0.5220 
     39 N          28.0989   28.9337    3.1111 N.am      6 UNK        -0.4450 
     40 CA         27.8031   29.7910    4.2685 C.3       6 UNK         0.0367 
     41 CB         26.6360   29.1864    5.0649 C.3       6 UNK        -0.1929 
     42 C          27.5125   31.2624    3.9204 C.2       6 UNK         0.5070 
     43 O          27.5856   32.1180    4.8027 O.2       6 UNK        -0.5237 
     44 N          27.1995   31.5370    2.6476 N.am      7 UNK        -0.4739 
     45 CA         27.0441   32.8839    2.0953 C.3       7 UNK         0.0276 
     46 CB         26.2546   32.7875    0.7789 C.3       7 UNK        -0.1927 
     47 C          28.3847   33.6130    1.8689 C.2       7 UNK         0.5013 
     48 O          28.3662   34.8222    1.6330 O.2       7 UNK        -0.5193 
     49 N          29.5083   32.8850    1.9202 N.am      8 UNK        -0.4253 
     50 CA         30.8632   33.3963    1.7294 C.3       8 UNK         0.0242 
     51 CB         31.5067   32.6287    0.5595 C.3       8 UNK        -0.2000 
     52 C          31.6852   33.2055    3.0121 C.2       8 UNK         0.4948 
     53 O          31.2797   32.4730    3.9170 O.2       8 UNK        -0.5275 
     54 N          32.8643   33.8400    3.0492 N.am      9 UNK        -0.4246 
     55 CA         33.8458   33.7034    4.1322 C.3       9 UNK         0.0261 
     56 CB         34.8830   34.8326    4.0166 C.3       9 UNK        -0.1959 
     57 C          34.5479   32.3309    4.1636 C.2       9 UNK         0.5033 
     58 O          35.1283   31.9819    5.1924 O.2       9 UNK        -0.5390 
     59 N          34.4753   31.5784    3.0540 N.am      10 UNK        -0.4215 
     60 CA         35.1165   30.2784    2.8185 C.3       10 UNK         0.0240 
     61 CB         34.7519   29.7947    1.4045 C.3       10 UNK        -0.1982 
     62 C          34.8001   29.1773    3.8483 C.2       10 UNK         0.4970 
     63 O          35.6023   28.2538    3.9877 O.2       10 UNK        -0.4916 
     64 N          33.6628   29.2904    4.5420 N.am      11 UNK        -0.4279 
     65 CA         33.2541   28.4133    5.6472 C.3       11 UNK         0.1003 
     66 C          32.8240   29.2161    6.9090 C.2       11 UNK         0.5709 
     67 N          33.2480   30.4662    7.0662 N.am      11 UNK        -0.7358 
     68 O          32.1128   28.7045    7.7703 O.2       11 UNK        -0.4999 
     69 C69        32.2194   27.3527    5.1728 C.3       12 UNK        -0.0954 
     70 S70        32.5180   25.6945    5.8769 S.3       12 UNK        -0.2268 
     71 C71        33.8387   25.0458    4.7989 C.3       12 UNK         0.0203 
     72 H72        27.2515   17.3587    0.7125 H         1 UNK         0.0888 
     73 H73        27.5460   18.5258    2.0028 H         1 UNK         0.0888 
     74 H74        25.9196   18.3300    1.3465 H         1 UNK         0.0888 
     75 H75        28.5175   20.4028    1.2689 H         1 UNK         0.3017 
     76 H76        28.6294   21.1179   -1.5204 H         1 UNK         0.0873 
     77 H77        29.5451   22.7218    0.9253 H         1 UNK         0.0745 
     78 H78        29.9621   23.0630   -0.7315 H         1 UNK         0.0745 
     79 H79        32.5935   20.8516    1.9840 H         1 UNK         0.0705 
     80 H80        31.0103   21.4074    2.4674 H         1 UNK         0.0705 
     81 H81        32.7348   22.6767    4.0203 H         1 UNK         0.1334 
     82 H82        33.8362   26.5348    2.5162 H         1 UNK         0.1417 
     83 H83        32.1619   23.6389   -0.1312 H         1 UNK         0.1562 
     84 H84        33.4457   25.7050   -0.9496 H         1 UNK         0.0748 
     85 H85        33.6377   27.0368    0.1639 H         1 UNK         0.0748 
     86 H86        31.4062   28.8029    0.7100 H         1 UNK         0.0940 
     87 H87        31.4901   27.4647    1.8226 H         1 UNK         0.0940 
     88 H88        28.9715   28.3602    0.3499 H         1 UNK         0.0703 
     89 H89        28.0615   26.4390    0.8466 H         1 UNK         0.3081 
     90 H90        28.3621   23.8756    2.4599 H         1 UNK         0.0719 
     91 H91        26.8814   23.7476    4.4772 H         1 UNK         0.0809 
     92 H92        27.1753   25.4572    4.7962 H         1 UNK         0.0809 
     93 H93        28.4962   24.3020    4.8827 H         1 UNK         0.0809 
     94 H94        26.4364   24.1933    1.4282 H         1 UNK         0.2990 
     95 H95        23.8164   25.5597    1.5145 H         1 UNK         0.0690 
     96 H96        23.4849   27.4665   -0.0898 H         1 UNK         0.0788 
     97 H97        25.1349   28.0071    0.2162 H         1 UNK         0.0788 
     98 H98        23.9427   28.0300    1.5073 H         1 UNK         0.0788 
     99 H99        24.3330   24.4709   -0.3388 H         1 UNK         0.2993 
    100 H100       25.2206   23.7396   -2.1512 H         1 UNK         0.0949 
    101 H101       27.4811   25.3828   -3.4124 H         1 UNK         0.0767 
    102 H102       26.5067   24.1512   -4.2163 H         1 UNK         0.0767 
    103 H103       25.7651   25.6507   -3.6838 H         1 UNK         0.0767 
    104 H104       27.9111   23.1160   -2.4422 H         1 UNK         0.3013 
    105 H105       27.4531   28.1633    2.9520 H         1 UNK         0.3121 
    106 H106       28.6875   29.7867    4.9094 H         1 UNK         0.0774 
    107 H107       26.4358   29.7654    5.9673 H         1 UNK         0.0815 
    108 H108       25.7168   29.1677    4.4782 H         1 UNK         0.0815 
    109 H109       26.8552   28.1651    5.3771 H         1 UNK         0.0815 
    110 H110       27.1500   30.7663    1.9974 H         1 UNK         0.2987 
    111 H111       26.4645   33.4841    2.8004 H         1 UNK         0.0949 
    112 H112       25.2774   32.3296    0.9339 H         1 UNK         0.0806 
    113 H113       26.0817   33.7771    0.3535 H         1 UNK         0.0806 
    114 H114       26.7875   32.2001    0.0300 H         1 UNK         0.0806 
    115 H115       29.4584   31.9120    2.2099 H         1 UNK         0.3010 
    116 H116       30.8454   34.4620    1.4912 H         1 UNK         0.0829 
    117 H117       30.9150   32.7308   -0.3504 H         1 UNK         0.0813 
    118 H118       32.5050   33.0052    0.3341 H         1 UNK         0.0813 
    119 H119       31.5977   31.5634    0.7773 H         1 UNK         0.0813 
    120 H120       33.1242   34.4360    2.2754 H         1 UNK         0.3038 
    121 H121       33.3211   33.8188    5.0833 H         1 UNK         0.0769 
    122 H122       35.4383   34.7785    3.0793 H         1 UNK         0.0811 
    123 H123       35.6098   34.7796    4.8286 H         1 UNK         0.0811 
    124 H124       34.4107   35.8136    4.0727 H         1 UNK         0.0811 
    125 H125       33.9641   31.9645    2.2751 H         1 UNK         0.3204 
    126 H126       36.1948   30.4451    2.8562 H         1 UNK         0.0748 
    127 H127       35.2383   28.8447    1.1779 H         1 UNK         0.0771 
    128 H128       33.6772   29.6451    1.2951 H         1 UNK         0.0771 
    129 H129       35.0722   30.5070    0.6438 H         1 UNK         0.0771 
    130 H130       33.0604   30.0835    4.3695 H         1 UNK         0.2980 
    131 H131       34.1441   27.8844    5.9916 H         1 UNK         0.0545 
    132 H132       33.8912   30.8892    6.4067 H         1 UNK         0.3459 
    133 H133       32.9682   30.9760    7.8888 H         1 UNK         0.3459 
    134 H134       32.2256   27.2605    4.0886 H         1 UNK         0.0616 
    135 H135       31.1996   27.6568    5.4154 H         1 UNK         0.0616 
    136 H136       34.6373   25.7841    4.7168 H         1 UNK         0.0634 
    137 H137       34.2843   24.1771    5.2854 H         1 UNK         0.0634 
@<TRIPOS>BOND
     1    1    2 1    
     2    1   72 1    
     3    1   73 1    
     4    1   74 1    
     5    2    3 2    
     6    2    4 am   BACKBONE|DICT|INTERRES
     7    4    5 1    
     8    4   75 1    
     9    5    6 1    
    10    5   35 1    
    11    5   76 1    
    12    6    7 1    
    13    6   77 1    
    14    6   78 1    
    15    7    8 1    
    16    8    9 1    
    17    8   79 1    
    18    8   80 1    
    19    9   10 ar   
    20    9   14 ar   
    21   10   11 ar   
    22   10   81 1    
    23   11   12 ar   
    24   11   71 1    
    25   12   13 ar   
    26   12   82 1    
    27   13   14 ar   
    28   13   15 1    
    29   14   83 1    
    30   15   16 1    
    31   15   84 1    
    32   15   85 1    
    33   16   17 1    
    34   17   18 1    
    35   17   86 1    
    36   17   87 1    
    37   18   19 1    
    38   18   37 1    
    39   18   88 1    
    40   19   20 am   BACKBONE|DICT|INTERRES
    41   19   89 1    
    42   20   21 2    
    43   20   22 1    
    44   22   23 1    
    45   22   24 1    
    46   22   90 1    
    47   23   91 1    
    48   23   92 1    
    49   23   93 1    
    50   24   25 am   BACKBONE|DICT|INTERRES
    51   24   94 1    
    52   25   26 2    
    53   25   27 1    
    54   27   28 1    
    55   27   29 1    
    56   27   95 1    
    57   28   96 1    
    58   28   97 1    
    59   28   98 1    
    60   29   30 am   BACKBONE|DICT|INTERRES
    61   29   99 1    
    62   30   31 2    
    63   30   32 1    
    64   32   33 1    
    65   32   34 1    
    66   32  100 1    
    67   33  101 1    
    68   33  102 1    
    69   33  103 1    
    70   34   35 am   BACKBONE|DICT|INTERRES
    71   34  104 1    
    72   35   36 2    
    73   37   38 2    
    74   37   39 am   BACKBONE|DICT|INTERRES
    75   39   40 1    
    76   39  105 1    
    77   40   41 1    
    78   40   42 1    
    79   40  106 1    
    80   41  107 1    
    81   41  108 1    
    82   41  109 1    
    83   42   43 2    
    84   42   44 am   BACKBONE|DICT|INTERRES
    85   44   45 1    
    86   44  110 1    
    87   45   46 1    
    88   45   47 1    
    89   45  111 1    
    90   46  112 1    
    91   46  113 1    
    92   46  114 1    
    93   47   48 2    
    94   47   49 am   BACKBONE|DICT|INTERRES
    95   49   50 1    
    96   49  115 1    
    97   50   51 1    
    98   50   52 1    
    99   50  116 1    
   100   51  117 1    
   101   51  118 1    
   102   51  119 1    
   103   52   53 2    
   104   52   54 am   BACKBONE|DICT|INTERRES
   105   54   55 1    
   106   54  120 1    
   107   55   56 1    
   108   55   57 1    
   109   55  121 1    
   110   56  122 1    
   111   56  123 1    
   112   56  124 1    
   113   57   58 2    
   114   57   59 am   BACKBONE|DICT|INTERRES
   115   59   60 1    
   116   59  125 1    
   117   60   61 1    
   118   60   62 1    
   119   60  126 1    
   120   61  127 1    
   121   61  128 1    
   122   61  129 1    
   123   62   63 2    
   124   62   64 am   BACKBONE|DICT|INTERRES
   125   64   65 1    
   126   64  130 1    
   127   65   66 1    
   128   65   69 1    
   129   65  131 1    
   130   66   67 am   BACKBONE|DICT|INTERRES
   131   66   68 2    
   132   67  132 1    
   133   67  133 1    
   134   69   70 1    
   135   69  134 1    
   136   69  135 1    
   137   70   71 1    
   138   71  136 1    
   139   71  137 1    
@<TRIPOS>SUBSTRUCTURE
     1 UNK         1 GROUP             0       ****    0 ROOT    
