@<TRIPOS>MOLECULE
3R136
137   139    1
SMALL
USER_CHARGES


@<TRIPOS>ATOM
      1 CA         27.4708   23.8550   -3.2317 C.3       0 UNK        -0.1979 
      2 C          27.6539   24.1156   -1.7451 C.2       0 UNK         0.4864 
      3 O          27.3252   25.2062   -1.2751 O.2       0 UNK        -0.5359 
      4 N          28.1814   23.1318   -1.0046 N.am      1 UNK        -0.4318 
      5 CA         28.3966   23.2017    0.4438 C.3       1 UNK         0.0824 
      6 C6         29.2512   22.0268    0.9817 C.3       12 UNK        -0.0944 
      7 S7         30.8402   21.8249    0.1054 S.3       12 UNK        -0.2672 
      8 C8         32.0830   22.0283    1.4324 C.3       12 UNK         0.0333 
      9 C9         32.6393   23.4445    1.5909 C.ar      12 UNK        -0.0807 
     10 C10        33.0958   23.8637    2.8471 C.ar      12 UNK        -0.0894 
     11 C11        33.6895   25.1203    3.0150 C.ar      12 UNK        -0.0804 
     12 C12        33.8293   25.9595    1.9058 C.ar      12 UNK        -0.0824 
     13 C13        33.3672   25.5650    0.6498 C.ar      12 UNK        -0.0762 
     14 C14        32.7801   24.3064    0.4955 C.ar      12 UNK        -0.0782 
     15 C15        33.5313   26.4980   -0.5391 C.3       12 UNK         0.0230 
     16 S16        32.4068   27.9231   -0.4313 S.3       12 UNK        -0.2608 
     17 C17        30.8057   27.1484   -0.8242 C.3       12 UNK        -0.0989 
     18 CA         29.6389   27.8048   -0.0445 C.3       5 UNK         0.0716 
     19 N          28.4193   27.8083   -0.8444 N.am      5 UNK        -0.4135 
     20 C          27.9475   28.8329   -1.5608 C.2       4 UNK         0.5031 
     21 O          28.5156   29.9200   -1.6684 O.2       4 UNK        -0.5229 
     22 CA         26.6139   28.6082   -2.2928 C.3       4 UNK         0.0329 
     23 CB         26.8691   28.1363   -3.7335 C.3       4 UNK        -0.2001 
     24 N          25.7584   27.6316   -1.6162 N.am      4 UNK        -0.4303 
     25 C          25.0165   27.8828   -0.5311 C.2       3 UNK         0.5044 
     26 O          24.9433   28.9844    0.0134 O.2       3 UNK        -0.5152 
     27 CA         24.2355   26.7007    0.0528 C.3       3 UNK         0.0319 
     28 CB         23.6937   25.7281   -1.0173 C.3       3 UNK        -0.2001 
     29 N          25.0945   25.9927    0.9949 N.am      3 UNK        -0.4354 
     30 C          24.6655   25.2583    2.0292 C.2       2 UNK         0.4964 
     31 O          23.4760   25.1022    2.3113 O.2       2 UNK        -0.5047 
     32 CA         25.7541   24.5995    2.8978 C.3       2 UNK         0.0288 
     33 CB         25.2355   23.4278    3.7594 C.3       2 UNK        -0.2113 
     34 N          26.9342   24.2217    2.1132 N.am      2 UNK        -0.4145 
     35 C          27.0451   23.2624    1.1865 C.2       1 UNK         0.5006 
     36 O          26.1604   22.4486    0.9091 O.2       1 UNK        -0.5103 
     37 C          29.3339   27.1093    1.2948 C.2       5 UNK         0.5055 
     38 O          28.2393   26.5660    1.4713 O.2       5 UNK        -0.5220 
     39 N          30.2696   27.1794    2.2492 N.am      6 UNK        -0.4450 
     40 CA         30.1966   26.7135    3.6476 C.3       6 UNK         0.0367 
     41 CB         29.8968   25.2064    3.7529 C.3       6 UNK        -0.1929 
     42 C          29.2382   27.5442    4.5226 C.2       6 UNK         0.5070 
     43 O          29.5897   27.9018    5.6454 O.2       6 UNK        -0.5237 
     44 N          28.0739   27.8981    3.9646 N.am      7 UNK        -0.4739 
     45 CA         27.1929   28.9731    4.4301 C.3       7 UNK         0.0276 
     46 CB         25.7878   28.7382    3.8494 C.3       7 UNK        -0.1927 
     47 C          27.7219   30.3707    4.0352 C.2       7 UNK         0.5013 
     48 O          27.1639   31.3781    4.4713 O.2       7 UNK        -0.5193 
     49 N          28.7810   30.4011    3.2196 N.am      8 UNK        -0.4253 
     50 CA         29.5454   31.5597    2.7819 C.3       8 UNK         0.0242 
     51 CB         29.0122   32.0338    1.4182 C.3       8 UNK        -0.2000 
     52 C          31.0204   31.1344    2.6992 C.2       8 UNK         0.4948 
     53 O          31.3127   29.9397    2.8086 O.2       8 UNK        -0.5275 
     54 N          31.9052   32.1189    2.4917 N.am      9 UNK        -0.4246 
     55 CA         33.3733   32.0339    2.5309 C.3       9 UNK         0.0261 
     56 CB         33.9244   30.8827    1.6561 C.3       9 UNK        -0.1959 
     57 C          33.9100   32.0020    3.9758 C.2       9 UNK         0.5033 
     58 O          33.1363   32.1099    4.9312 O.2       9 UNK        -0.5390 
     59 N          35.2410   31.9063    4.1100 N.am      10 UNK        -0.4215 
     60 CA         35.9912   32.0462    5.3666 C.3       10 UNK         0.0240 
     61 CB         37.4970   31.9594    5.0668 C.3       10 UNK        -0.1982 
     62 C          35.6110   31.0537    6.4810 C.2       10 UNK         0.4970 
     63 O          35.7598   31.3901    7.6566 O.2       10 UNK        -0.4916 
     64 N          35.1276   29.8661    6.1008 N.am      11 UNK        -0.4279 
     65 CA         34.5813   28.8525    7.0142 C.3       11 UNK         0.1003 
     66 C          33.1581   29.1696    7.5661 C.2       11 UNK         0.5709 
     67 N          32.4618   30.1961    7.0900 N.am      11 UNK        -0.7358 
     68 O          32.6872   28.4800    8.4677 O.2       11 UNK        -0.4999 
     69 C69        34.6808   27.4288    6.4054 C.3       12 UNK        -0.0954 
     70 S70        33.8446   27.2746    4.7946 S.3       12 UNK        -0.2268 
     71 C71        34.2244   25.5406    4.3814 C.3       12 UNK         0.0203 
     72 H72        27.7840   22.8491   -3.5105 H         1 UNK         0.0888 
     73 H73        26.4229   23.9732   -3.5055 H         1 UNK         0.0888 
     74 H74        28.0581   24.5669   -3.8107 H         1 UNK         0.0888 
     75 H75        28.4290   22.2542   -1.4379 H         1 UNK         0.3017 
     76 H76        28.9482   24.1235    0.6375 H         1 UNK         0.0873 
     77 H77        28.7065   21.0847    0.8900 H         1 UNK         0.0745 
     78 H78        29.4394   22.1625    2.0482 H         1 UNK         0.0745 
     79 H79        31.6715   21.6684    2.3765 H         1 UNK         0.0705 
     80 H80        32.9227   21.3711    1.2033 H         1 UNK         0.0705 
     81 H81        33.0087   23.1985    3.6955 H         1 UNK         0.1334 
     82 H82        34.2987   26.9276    2.0157 H         1 UNK         0.1417 
     83 H83        32.4526   23.9932   -0.4859 H         1 UNK         0.1562 
     84 H84        33.3658   25.9722   -1.4808 H         1 UNK         0.0748 
     85 H85        34.5591   26.8626   -0.5694 H         1 UNK         0.0748 
     86 H86        30.8368   26.0692   -0.6638 H         1 UNK         0.0940 
     87 H87        30.6645   27.2758   -1.8990 H         1 UNK         0.0940 
     88 H88        29.8919   28.8398    0.1970 H         1 UNK         0.0703 
     89 H89        27.8914   26.9375   -0.8175 H         1 UNK         0.3081 
     90 H90        26.0897   29.5656   -2.3324 H         1 UNK         0.0719 
     91 H91        27.3863   27.1762   -3.7581 H         1 UNK         0.0809 
     92 H92        25.9361   28.0299   -4.2873 H         1 UNK         0.0809 
     93 H93        27.4868   28.8540   -4.2753 H         1 UNK         0.0809 
     94 H94        25.8367   26.6707   -1.9255 H         1 UNK         0.2990 
     95 H95        23.3851   27.1234    0.5924 H         1 UNK         0.0690 
     96 H96        23.1483   26.2628   -1.7961 H         1 UNK         0.0788 
     97 H97        23.0013   25.0106   -0.5768 H         1 UNK         0.0788 
     98 H98        24.4898   25.1583   -1.4976 H         1 UNK         0.0788 
     99 H99        26.0929   26.0847    0.8428 H         1 UNK         0.2993 
    100 H100       26.0918   25.3777    3.5839 H         1 UNK         0.0949 
    101 H101       26.0376   22.9834    4.3487 H         1 UNK         0.0767 
    102 H102       24.4710   23.7684    4.4587 H         1 UNK         0.0767 
    103 H103       24.7879   22.6412    3.1515 H         1 UNK         0.0767 
    104 H104       27.6802   24.9121    2.1333 H         1 UNK         0.3013 
    105 H105       31.1103   27.7047    2.0338 H         1 UNK         0.3121 
    106 H106       31.1975   26.8720    4.0423 H         1 UNK         0.0774 
    107 H107       28.8286   25.0029    3.7567 H         1 UNK         0.0815 
    108 H108       30.2948   24.8063    4.6859 H         1 UNK         0.0815 
    109 H109       30.3494   24.6434    2.9379 H         1 UNK         0.0815 
    110 H110       27.8825   27.5214    3.0402 H         1 UNK         0.2987 
    111 H111       27.1332   28.9392    5.5201 H         1 UNK         0.0949 
    112 H112       25.7947   28.7467    2.7584 H         1 UNK         0.0806 
    113 H113       25.3774   27.7828    4.1758 H         1 UNK         0.0806 
    114 H114       25.0943   29.5140    4.1764 H         1 UNK         0.0806 
    115 H115       29.2400   29.5242    3.0105 H         1 UNK         0.3010 
    116 H116       29.4564   32.3599    3.5199 H         1 UNK         0.0829 
    117 H117       27.9521   32.2822    1.4724 H         1 UNK         0.0813 
    118 H118       29.5354   32.9270    1.0756 H         1 UNK         0.0813 
    119 H119       29.1355   31.2686    0.6510 H         1 UNK         0.0813 
    120 H120       31.5433   33.0604    2.4323 H         1 UNK         0.3038 
    121 H121       33.7259   32.9707    2.0966 H         1 UNK         0.0769 
    122 H122       34.9894   31.0058    1.4596 H         1 UNK         0.0811 
    123 H123       33.7954   29.9089    2.1306 H         1 UNK         0.0811 
    124 H124       33.4259   30.8470    0.6872 H         1 UNK         0.0811 
    125 H125       35.7967   31.8203    3.2712 H         1 UNK         0.3204 
    126 H126       35.7806   33.0461    5.7520 H         1 UNK         0.0748 
    127 H127       38.0854   32.0874    5.9768 H         1 UNK         0.0771 
    128 H128       37.7678   30.9939    4.6373 H         1 UNK         0.0771 
    129 H129       37.8105   32.7380    4.3711 H         1 UNK         0.0771 
    130 H130       35.0154   29.6745    5.1165 H         1 UNK         0.2980 
    131 H131       35.2229   28.8459    7.8974 H         1 UNK         0.0545 
    132 H132       31.5441   30.3753    7.4628 H         1 UNK         0.3459 
    133 H133       32.8236   30.7817    6.3437 H         1 UNK         0.3459 
    134 H134       34.2751   26.6820    7.0904 H         1 UNK         0.0616 
    135 H135       35.7310   27.1675    6.2668 H         1 UNK         0.0616 
    136 H136       35.3058   25.3989    4.3915 H         1 UNK         0.0634 
    137 H137       33.8138   24.9016    5.1646 H         1 UNK         0.0634 
@<TRIPOS>BOND
     1    1    2 1    
     2    1   72 1    
     3    1   73 1    
     4    1   74 1    
     5    2    3 2    
     6    2    4 am   BACKBONE|DICT|INTERRES
     7    4    5 1    
     8    4   75 1    
     9    5    6 1    
    10    5   35 1    
    11    5   76 1    
    12    6    7 1    
    13    6   77 1    
    14    6   78 1    
    15    7    8 1    
    16    8    9 1    
    17    8   79 1    
    18    8   80 1    
    19    9   10 ar   
    20    9   14 ar   
    21   10   11 ar   
    22   10   81 1    
    23   11   12 ar   
    24   11   71 1    
    25   12   13 ar   
    26   12   82 1    
    27   13   14 ar   
    28   13   15 1    
    29   14   83 1    
    30   15   16 1    
    31   15   84 1    
    32   15   85 1    
    33   16   17 1    
    34   17   18 1    
    35   17   86 1    
    36   17   87 1    
    37   18   19 1    
    38   18   37 1    
    39   18   88 1    
    40   19   20 am   BACKBONE|DICT|INTERRES
    41   19   89 1    
    42   20   21 2    
    43   20   22 1    
    44   22   23 1    
    45   22   24 1    
    46   22   90 1    
    47   23   91 1    
    48   23   92 1    
    49   23   93 1    
    50   24   25 am   BACKBONE|DICT|INTERRES
    51   24   94 1    
    52   25   26 2    
    53   25   27 1    
    54   27   28 1    
    55   27   29 1    
    56   27   95 1    
    57   28   96 1    
    58   28   97 1    
    59   28   98 1    
    60   29   30 am   BACKBONE|DICT|INTERRES
    61   29   99 1    
    62   30   31 2    
    63   30   32 1    
    64   32   33 1    
    65   32   34 1    
    66   32  100 1    
    67   33  101 1    
    68   33  102 1    
    69   33  103 1    
    70   34   35 am   BACKBONE|DICT|INTERRES
    71   34  104 1    
    72   35   36 2    
    73   37   38 2    
    74   37   39 am   BACKBONE|DICT|INTERRES
    75   39   40 1    
    76   39  105 1    
    77   40   41 1    
    78   40   42 1    
    79   40  106 1    
    80   41  107 1    
    81   41  108 1    
    82   41  109 1    
    83   42   43 2    
    84   42   44 am   BACKBONE|DICT|INTERRES
    85   44   45 1    
    86   44  110 1    
    87   45   46 1    
    88   45   47 1    
    89   45  111 1    
    90   46  112 1    
    91   46  113 1    
    92   46  114 1    
    93   47   48 2    
    94   47   49 am   BACKBONE|DICT|INTERRES
    95   49   50 1    
    96   49  115 1    
    97   50   51 1    
    98   50   52 1    
    99   50  116 1    
   100   51  117 1    
   101   51  118 1    
   102   51  119 1    
   103   52   53 2    
   104   52   54 am   BACKBONE|DICT|INTERRES
   105   54   55 1    
   106   54  120 1    
   107   55   56 1    
   108   55   57 1    
   109   55  121 1    
   110   56  122 1    
   111   56  123 1    
   112   56  124 1    
   113   57   58 2    
   114   57   59 am   BACKBONE|DICT|INTERRES
   115   59   60 1    
   116   59  125 1    
   117   60   61 1    
   118   60   62 1    
   119   60  126 1    
   120   61  127 1    
   121   61  128 1    
   122   61  129 1    
   123   62   63 2    
   124   62   64 am   BACKBONE|DICT|INTERRES
   125   64   65 1    
   126   64  130 1    
   127   65   66 1    
   128   65   69 1    
   129   65  131 1    
   130   66   67 am   BACKBONE|DICT|INTERRES
   131   66   68 2    
   132   67  132 1    
   133   67  133 1    
   134   69   70 1    
   135   69  134 1    
   136   69  135 1    
   137   70   71 1    
   138   71  136 1    
   139   71  137 1    
@<TRIPOS>SUBSTRUCTURE
     1 UNK         1 GROUP             0       ****    0 ROOT    
