@<TRIPOS>MOLECULE
3R136
137   139    1
SMALL
USER_CHARGES


@<TRIPOS>ATOM
      1 CA         29.3371   27.5683   -2.9331 C.3       0 UNK        -0.1979 
      2 C          29.2197   26.4276   -1.9356 C.2       0 UNK         0.4864 
      3 O          28.2585   26.3806   -1.1645 O.2       0 UNK        -0.5359 
      4 N          30.1830   25.4971   -1.9496 N.am      1 UNK        -0.4318 
      5 CA         30.1753   24.2826   -1.1284 C.3       1 UNK         0.0824 
      6 C6         31.4776   23.4603   -1.2823 C.3       12 UNK        -0.0944 
      7 S7         32.9264   24.3069   -0.5638 S.3       12 UNK        -0.2672 
      8 C8         33.3059   23.2582    0.8811 C.3       12 UNK         0.0333 
      9 C9         32.5086   23.6616    2.1158 C.ar      12 UNK        -0.0807 
     10 C10        33.1395   24.3200    3.1754 C.ar      12 UNK        -0.0894 
     11 C11        32.4257   24.6829    4.3259 C.ar      12 UNK        -0.0804 
     12 C12        31.0569   24.3919    4.3948 C.ar      12 UNK        -0.0824 
     13 C13        30.4162   23.7209    3.3469 C.ar      12 UNK        -0.0762 
     14 C14        31.1522   23.3459    2.2203 C.ar      12 UNK        -0.0782 
     15 C15        28.9420   23.3511    3.4347 C.3       12 UNK         0.0230 
     16 S16        27.8920   24.5093    2.4975 S.3       12 UNK        -0.2608 
     17 C17        27.4001   25.7029    3.7824 C.3       12 UNK        -0.0989 
     18 CA         27.4632   27.1739    3.2977 C.3       5 UNK         0.0716 
     19 N          26.5991   27.4207    2.1305 N.am      5 UNK        -0.4135 
     20 C          26.6698   28.4703    1.2978 C.2       4 UNK         0.5031 
     21 O          27.4950   29.3822    1.4197 O.2       4 UNK        -0.5229 
     22 CA         25.6396   28.5186    0.1621 C.3       4 UNK         0.0329 
     23 CB         25.8219   29.7432   -0.7575 C.3       4 UNK        -0.2001 
     24 N          25.7126   27.2936   -0.6298 N.am      4 UNK        -0.4303 
     25 C          24.6760   26.7201   -1.2545 C.2       3 UNK         0.5044 
     26 O          23.5180   27.1322   -1.1750 O.2       3 UNK        -0.5152 
     27 CA         24.9658   25.4803   -2.1128 C.3       3 UNK         0.0319 
     28 CB         25.5059   25.8896   -3.4935 C.3       3 UNK        -0.2001 
     29 N          25.9197   24.5809   -1.4597 N.am      3 UNK        -0.4354 
     30 C          25.7128   23.2746   -1.2350 C.2       2 UNK         0.4964 
     31 O          24.6871   22.6821   -1.5753 O.2       2 UNK        -0.5047 
     32 CA         26.8098   22.4908   -0.4822 C.3       2 UNK         0.0288 
     33 CB         26.9509   21.0335   -0.9737 C.3       2 UNK        -0.2113 
     34 N          28.1097   23.1713   -0.4402 N.am      2 UNK        -0.4145 
     35 C          28.9427   23.4172   -1.4613 C.2       1 UNK         0.5006 
     36 O          28.7683   23.0287   -2.6185 O.2       1 UNK        -0.5103 
     37 C          27.1958   28.1668    4.4579 C.2       5 UNK         0.5055 
     38 O          26.9204   27.7578    5.5872 O.2       5 UNK        -0.5220 
     39 N          27.3021   29.4588    4.1502 N.am      6 UNK        -0.4450 
     40 CA         27.2360   30.5973    5.0577 C.3       6 UNK         0.0367 
     41 CB         25.7763   30.9661    5.3789 C.3       6 UNK        -0.1929 
     42 C          27.9908   31.7624    4.4113 C.2       6 UNK         0.5070 
     43 O          28.8738   32.3401    5.0431 O.2       6 UNK        -0.5237 
     44 N          27.6688   32.0461    3.1403 N.am      7 UNK        -0.4739 
     45 CA         28.3725   33.0241    2.3092 C.3       7 UNK         0.0276 
     46 CB         27.4668   33.4528    1.1431 C.3       7 UNK        -0.1927 
     47 C          29.7077   32.4738    1.7834 C.2       7 UNK         0.5013 
     48 O          30.7120   33.1849    1.8218 O.2       7 UNK        -0.5193 
     49 N          29.6968   31.2187    1.3109 N.am      8 UNK        -0.4253 
     50 CA         30.8733   30.5286    0.7765 C.3       8 UNK         0.0242 
     51 CB         30.4142   29.4790   -0.2465 C.3       8 UNK        -0.2000 
     52 C          31.7275   29.8635    1.8668 C.2       8 UNK         0.4948 
     53 O          32.8959   29.5654    1.6136 O.2       8 UNK        -0.5275 
     54 N          31.1504   29.6372    3.0553 N.am      9 UNK        -0.4246 
     55 CA         31.7854   28.9672    4.1924 C.3       9 UNK         0.0261 
     56 CB         30.7031   28.4031    5.1301 C.3       9 UNK        -0.1959 
     57 C          32.7971   29.8630    4.9318 C.2       9 UNK         0.5033 
     58 O          32.6877   30.0543    6.1450 O.2       9 UNK        -0.5390 
     59 N          33.8094   30.3547    4.2076 N.am      10 UNK        -0.4215 
     60 CA         34.9856   31.0501    4.7430 C.3       10 UNK         0.0240 
     61 CB         35.5946   31.9261    3.6324 C.3       10 UNK        -0.1982 
     62 C          35.9943   30.0411    5.3331 C.2       10 UNK         0.4970 
     63 O          37.1618   30.0215    4.9389 O.2       10 UNK        -0.4916 
     64 N          35.4958   29.1866    6.2312 N.am      11 UNK        -0.4279 
     65 CA         36.1668   27.9896    6.7554 C.3       11 UNK         0.1003 
     66 C          36.8426   28.2034    8.1397 C.2       11 UNK         0.5709 
     67 N          36.7764   29.3870    8.7383 N.am      11 UNK        -0.7358 
     68 O          37.4547   27.2823    8.6755 O.2       11 UNK        -0.4999 
     69 C69        35.1918   26.7793    6.7684 C.3       12 UNK        -0.0954 
     70 S70        34.5207   26.4091    5.1106 S.3       12 UNK        -0.2268 
     71 C71        33.1223   25.3157    5.5330 C.3       12 UNK         0.0203 
     72 H72        28.7291   28.4156   -2.6176 H         1 UNK         0.0888 
     73 H73        30.3691   27.9055   -3.0268 H         1 UNK         0.0888 
     74 H74        28.9862   27.2474   -3.9134 H         1 UNK         0.0888 
     75 H75        30.9475   25.5775   -2.6043 H         1 UNK         0.3017 
     76 H76        30.0948   24.6109   -0.0900 H         1 UNK         0.0873 
     77 H77        31.3740   22.4765   -0.8214 H         1 UNK         0.0745 
     78 H78        31.6824   23.2664   -2.3370 H         1 UNK         0.0745 
     79 H79        34.3747   23.3401    1.0845 H         1 UNK         0.0705 
     80 H80        33.1310   22.2071    0.6481 H         1 UNK         0.0705 
     81 H81        34.1980   24.5285    3.1085 H         1 UNK         0.1334 
     82 H82        30.4954   24.6592    5.2796 H         1 UNK         0.1417 
     83 H83        30.6657   22.8008    1.4251 H         1 UNK         0.1562 
     84 H84        28.6140   23.2938    4.4738 H         1 UNK         0.0748 
     85 H85        28.7990   22.3493    3.0265 H         1 UNK         0.0748 
     86 H86        28.0526   25.5694    4.6475 H         1 UNK         0.0940 
     87 H87        26.3933   25.4501    4.1206 H         1 UNK         0.0940 
     88 H88        28.4889   27.3570    2.9705 H         1 UNK         0.0703 
     89 H89        25.8912   26.7228    1.9559 H         1 UNK         0.3081 
     90 H90        24.6597   28.5899    0.6387 H         1 UNK         0.0719 
     91 H91        26.7983   29.7370   -1.2438 H         1 UNK         0.0809 
     92 H92        25.0598   29.7733   -1.5362 H         1 UNK         0.0809 
     93 H93        25.7416   30.6724   -0.1927 H         1 UNK         0.0809 
     94 H94        26.6525   26.9170   -0.7645 H         1 UNK         0.2990 
     95 H95        24.0105   24.9734   -2.2643 H         1 UNK         0.0690 
     96 H96        25.6603   25.0185   -4.1304 H         1 UNK         0.0788 
     97 H97        26.4553   26.4198   -3.4171 H         1 UNK         0.0788 
     98 H98        24.8044   26.5481   -4.0075 H         1 UNK         0.0788 
     99 H99        26.7957   24.9976   -1.1622 H         1 UNK         0.2993 
    100 H100       26.4694   22.4469    0.5535 H         1 UNK         0.0949 
    101 H101       27.1947   20.9835   -2.0352 H         1 UNK         0.0767 
    102 H102       27.7282   20.5027   -0.4241 H         1 UNK         0.0767 
    103 H103       26.0216   20.4809   -0.8306 H         1 UNK         0.0767 
    104 H104       28.3261   23.5896    0.4572 H         1 UNK         0.3013 
    105 H105       27.5068   29.6679    3.1746 H         1 UNK         0.3121 
    106 H106       27.7480   30.3390    5.9874 H         1 UNK         0.0774 
    107 H107       25.7300   31.8436    6.0251 H         1 UNK         0.0815 
    108 H108       25.2047   31.1912    4.4780 H         1 UNK         0.0815 
    109 H109       25.2695   30.1541    5.9004 H         1 UNK         0.0815 
    110 H110       26.9156   31.5389    2.6979 H         1 UNK         0.2987 
    111 H111       28.5894   33.9078    2.9142 H         1 UNK         0.0949 
    112 H112       27.9621   34.1989    0.5201 H         1 UNK         0.0806 
    113 H113       27.2067   32.6122    0.4988 H         1 UNK         0.0806 
    114 H114       26.5398   33.8986    1.5043 H         1 UNK         0.0806 
    115 H115       28.8252   30.6936    1.3028 H         1 UNK         0.3010 
    116 H116       31.5065   31.2520    0.2579 H         1 UNK         0.0829 
    117 H117       29.8270   29.9375   -1.0417 H         1 UNK         0.0813 
    118 H118       31.2696   28.9887   -0.7132 H         1 UNK         0.0813 
    119 H119       29.8060   28.7001    0.2154 H         1 UNK         0.0813 
    120 H120       30.2102   29.9738    3.1919 H         1 UNK         0.3038 
    121 H121       32.3509   28.1145    3.8099 H         1 UNK         0.0769 
    122 H122       30.1233   27.6259    4.6361 H         1 UNK         0.0811 
    123 H123       30.0230   29.1807    5.4784 H         1 UNK         0.0811 
    124 H124       31.1465   27.9436    6.0140 H         1 UNK         0.0811 
    125 H125       33.8175   30.1240    3.2167 H         1 UNK         0.3204 
    126 H126       34.6707   31.7091    5.5548 H         1 UNK         0.0748 
    127 H127       36.4516   32.4898    4.0035 H         1 UNK         0.0771 
    128 H128       35.9368   31.3268    2.7875 H         1 UNK         0.0771 
    129 H129       34.8703   32.6497    3.2576 H         1 UNK         0.0771 
    130 H130       34.5240   29.3040    6.4976 H         1 UNK         0.2980 
    131 H131       36.9847   27.7304    6.0806 H         1 UNK         0.0545 
    132 H132       37.2242   29.5156    9.6320 H         1 UNK         0.3459 
    133 H133       36.2864   30.1515    8.3021 H         1 UNK         0.3459 
    134 H134       34.3619   26.9685    7.4519 H         1 UNK         0.0616 
    135 H135       35.6946   25.8806    7.1303 H         1 UNK         0.0616 
    136 H136       32.4061   25.8869    6.1244 H         1 UNK         0.0634 
    137 H137       33.4874   24.5131    6.1750 H         1 UNK         0.0634 
@<TRIPOS>BOND
     1    1    2 1    
     2    1   72 1    
     3    1   73 1    
     4    1   74 1    
     5    2    3 2    
     6    2    4 am   BACKBONE|DICT|INTERRES
     7    4    5 1    
     8    4   75 1    
     9    5    6 1    
    10    5   35 1    
    11    5   76 1    
    12    6    7 1    
    13    6   77 1    
    14    6   78 1    
    15    7    8 1    
    16    8    9 1    
    17    8   79 1    
    18    8   80 1    
    19    9   10 ar   
    20    9   14 ar   
    21   10   11 ar   
    22   10   81 1    
    23   11   12 ar   
    24   11   71 1    
    25   12   13 ar   
    26   12   82 1    
    27   13   14 ar   
    28   13   15 1    
    29   14   83 1    
    30   15   16 1    
    31   15   84 1    
    32   15   85 1    
    33   16   17 1    
    34   17   18 1    
    35   17   86 1    
    36   17   87 1    
    37   18   19 1    
    38   18   37 1    
    39   18   88 1    
    40   19   20 am   BACKBONE|DICT|INTERRES
    41   19   89 1    
    42   20   21 2    
    43   20   22 1    
    44   22   23 1    
    45   22   24 1    
    46   22   90 1    
    47   23   91 1    
    48   23   92 1    
    49   23   93 1    
    50   24   25 am   BACKBONE|DICT|INTERRES
    51   24   94 1    
    52   25   26 2    
    53   25   27 1    
    54   27   28 1    
    55   27   29 1    
    56   27   95 1    
    57   28   96 1    
    58   28   97 1    
    59   28   98 1    
    60   29   30 am   BACKBONE|DICT|INTERRES
    61   29   99 1    
    62   30   31 2    
    63   30   32 1    
    64   32   33 1    
    65   32   34 1    
    66   32  100 1    
    67   33  101 1    
    68   33  102 1    
    69   33  103 1    
    70   34   35 am   BACKBONE|DICT|INTERRES
    71   34  104 1    
    72   35   36 2    
    73   37   38 2    
    74   37   39 am   BACKBONE|DICT|INTERRES
    75   39   40 1    
    76   39  105 1    
    77   40   41 1    
    78   40   42 1    
    79   40  106 1    
    80   41  107 1    
    81   41  108 1    
    82   41  109 1    
    83   42   43 2    
    84   42   44 am   BACKBONE|DICT|INTERRES
    85   44   45 1    
    86   44  110 1    
    87   45   46 1    
    88   45   47 1    
    89   45  111 1    
    90   46  112 1    
    91   46  113 1    
    92   46  114 1    
    93   47   48 2    
    94   47   49 am   BACKBONE|DICT|INTERRES
    95   49   50 1    
    96   49  115 1    
    97   50   51 1    
    98   50   52 1    
    99   50  116 1    
   100   51  117 1    
   101   51  118 1    
   102   51  119 1    
   103   52   53 2    
   104   52   54 am   BACKBONE|DICT|INTERRES
   105   54   55 1    
   106   54  120 1    
   107   55   56 1    
   108   55   57 1    
   109   55  121 1    
   110   56  122 1    
   111   56  123 1    
   112   56  124 1    
   113   57   58 2    
   114   57   59 am   BACKBONE|DICT|INTERRES
   115   59   60 1    
   116   59  125 1    
   117   60   61 1    
   118   60   62 1    
   119   60  126 1    
   120   61  127 1    
   121   61  128 1    
   122   61  129 1    
   123   62   63 2    
   124   62   64 am   BACKBONE|DICT|INTERRES
   125   64   65 1    
   126   64  130 1    
   127   65   66 1    
   128   65   69 1    
   129   65  131 1    
   130   66   67 am   BACKBONE|DICT|INTERRES
   131   66   68 2    
   132   67  132 1    
   133   67  133 1    
   134   69   70 1    
   135   69  134 1    
   136   69  135 1    
   137   70   71 1    
   138   71  136 1    
   139   71  137 1    
@<TRIPOS>SUBSTRUCTURE
     1 UNK         1 GROUP             0       ****    0 ROOT    
