@<TRIPOS>MOLECULE
3R136
137   139    1
SMALL
USER_CHARGES


@<TRIPOS>ATOM
      1 CA         30.1246   24.3188   -2.4159 C.3       0 UNK        -0.1979 
      2 C          29.4242   23.3656   -1.4593 C.2       0 UNK         0.4864 
      3 O          28.9796   22.2955   -1.8762 O.2       0 UNK        -0.5359 
      4 N          29.3076   23.7557   -0.1819 N.am      1 UNK        -0.4318 
      5 CA         28.6734   23.0283    0.9282 C.3       1 UNK         0.0824 
      6 C6         29.3073   21.6360    1.2172 C.3       12 UNK        -0.0944 
      7 S7         29.5746   21.3593    3.0011 S.3       12 UNK        -0.2672 
      8 C8         31.3925   21.4168    3.1299 C.3       12 UNK         0.0333 
      9 C9         31.9335   22.8416    3.1420 C.ar      12 UNK        -0.0807 
     10 C10        32.2531   23.4624    4.3551 C.ar      12 UNK        -0.0894 
     11 C11        32.8029   24.7481    4.3702 C.ar      12 UNK        -0.0804 
     12 C12        33.0213   25.4142    3.1612 C.ar      12 UNK        -0.0824 
     13 C13        32.6650   24.8271    1.9439 C.ar      12 UNK        -0.0762 
     14 C14        32.1456   23.5292    1.9422 C.ar      12 UNK        -0.0782 
     15 C15        32.8349   25.5803    0.6263 C.3       12 UNK         0.0230 
     16 S16        32.3432   27.3398    0.7091 S.3       12 UNK        -0.2608 
     17 C17        30.6481   27.2709    1.3871 C.3       12 UNK        -0.0989 
     18 CA         29.6096   27.9508    0.4538 C.3       5 UNK         0.0716 
     19 N          28.2630   27.3896    0.6216 N.am      5 UNK        -0.4135 
     20 C          27.4593   27.5473    1.6848 C.2       4 UNK         0.5031 
     21 O          27.7907   28.1624    2.6973 O.2       4 UNK        -0.5229 
     22 CA         26.0435   26.9427    1.6220 C.3       4 UNK         0.0329 
     23 CB         24.9675   27.9847    1.9943 C.3       4 UNK        -0.2001 
     24 N          25.7105   26.2662    0.3599 N.am      4 UNK        -0.4303 
     25 C          25.5645   26.7996   -0.8642 C.2       3 UNK         0.5044 
     26 O          25.7300   27.9969   -1.1007 O.2       3 UNK        -0.5152 
     27 CA         25.2541   25.8341   -2.0298 C.3       3 UNK         0.0319 
     28 CB         26.0667   26.1936   -3.2875 C.3       3 UNK        -0.2001 
     29 N          25.5237   24.4339   -1.6890 N.am      3 UNK        -0.4354 
     30 C          24.6665   23.5920   -1.0943 C.2       2 UNK         0.4964 
     31 O          23.4954   23.8697   -0.8386 O.2       2 UNK        -0.5047 
     32 CA         25.2390   22.2309   -0.6598 C.3       2 UNK         0.0288 
     33 CB         25.0653   21.1882   -1.7754 C.3       2 UNK        -0.2113 
     34 N          26.6551   22.3085   -0.2825 N.am      2 UNK        -0.4145 
     35 C          27.1383   22.9615    0.7843 C.2       1 UNK         0.5006 
     36 O          26.4252   23.5467    1.5999 O.2       1 UNK        -0.5103 
     37 C          29.5929   29.4959    0.5572 C.2       5 UNK         0.5055 
     38 O          30.3995   30.0798    1.2839 O.2       5 UNK        -0.5220 
     39 N          28.6197   30.1187   -0.1306 N.am      6 UNK        -0.4450 
     40 CA         28.3173   31.5574   -0.1213 C.3       6 UNK         0.0367 
     41 CB         29.4253   32.3519   -0.8446 C.3       6 UNK        -0.1929 
     42 C          28.0126   32.0917    1.2946 C.2       6 UNK         0.5070 
     43 O          28.5019   33.1569    1.6718 O.2       6 UNK        -0.5237 
     44 N          27.2152   31.3177    2.0470 N.am      7 UNK        -0.4739 
     45 CA         26.8654   31.5021    3.4609 C.3       7 UNK         0.0276 
     46 CB         26.0613   32.8023    3.6793 C.3       7 UNK        -0.1927 
     47 C          28.0992   31.3802    4.3764 C.2       7 UNK         0.5013 
     48 O          28.3779   32.2838    5.1672 O.2       7 UNK        -0.5193 
     49 N          28.8014   30.2448    4.2426 N.am      8 UNK        -0.4253 
     50 CA         29.9842   29.8206    4.9991 C.3       8 UNK         0.0242 
     51 CB         29.5994   29.5256    6.4654 C.3       8 UNK        -0.2000 
     52 C          31.1762   30.7897    4.8729 C.2       8 UNK         0.4948 
     53 O          31.8529   31.0614    5.8663 O.2       8 UNK        -0.5275 
     54 N          31.4173   31.3001    3.6567 N.am      9 UNK        -0.4246 
     55 CA         32.4401   32.3115    3.3750 C.3       9 UNK         0.0261 
     56 CB         32.2160   32.8952    1.9716 C.3       9 UNK        -0.1959 
     57 C          33.8775   31.7863    3.5124 C.2       9 UNK         0.5033 
     58 O          34.7438   32.5210    3.9890 O.2       9 UNK        -0.5390 
     59 N          34.1078   30.5357    3.0909 N.am      10 UNK        -0.4215 
     60 CA         35.4187   29.8812    3.1440 C.3       10 UNK         0.0240 
     61 CB         35.5215   28.8719    1.9886 C.3       10 UNK        -0.1982 
     62 C          35.7014   29.1849    4.4878 C.2       10 UNK         0.4970 
     63 O          36.8411   28.7734    4.7106 O.2       10 UNK        -0.4916 
     64 N          34.6778   29.0238    5.3361 N.am      11 UNK        -0.4279 
     65 CA         34.7648   28.3104    6.6181 C.3       11 UNK         0.1003 
     66 C          35.5331   29.1078    7.7077 C.2       11 UNK         0.5709 
     67 N          36.0819   28.4225    8.7020 N.am      11 UNK        -0.7358 
     68 O          35.6120   30.3349    7.6825 O.2       11 UNK        -0.4999 
     69 C69        33.3713   27.8529    7.1329 C.3       12 UNK        -0.0954 
     70 S70        32.3437   27.0253    5.8712 S.3       12 UNK        -0.2268 
     71 C71        33.1843   25.4206    5.6819 C.3       12 UNK         0.0203 
     72 H72        29.4857   24.5258   -3.2740 H         1 UNK         0.0888 
     73 H73        30.3726   25.2687   -1.9427 H         1 UNK         0.0888 
     74 H74        31.0478   23.8694   -2.7806 H         1 UNK         0.0888 
     75 H75        29.6853   24.6545    0.0772 H         1 UNK         0.3017 
     76 H76        28.8614   23.6702    1.7913 H         1 UNK         0.0873 
     77 H77        28.6968   20.8173    0.8314 H         1 UNK         0.0745 
     78 H78        30.2599   21.5273    0.6993 H         1 UNK         0.0745 
     79 H79        31.8438   20.8474    2.3160 H         1 UNK         0.0705 
     80 H80        31.6861   20.9037    4.0470 H         1 UNK         0.0705 
     81 H81        32.0893   22.9370    5.2861 H         1 UNK         0.1334 
     82 H82        33.4450   26.4084    3.1753 H         1 UNK         0.1417 
     83 H83        31.9054   23.0534    1.0025 H         1 UNK         0.1562 
     84 H84        32.2609   25.1004   -0.1671 H         1 UNK         0.0748 
     85 H85        33.8818   25.5250    0.3252 H         1 UNK         0.0748 
     86 H86        30.6412   27.7127    2.3850 H         1 UNK         0.0940 
     87 H87        30.3763   26.2268    1.5403 H         1 UNK         0.0940 
     88 H88        29.8859   27.7250   -0.5776 H         1 UNK         0.0703 
     89 H89        27.8734   26.9193   -0.1812 H         1 UNK         0.3081 
     90 H90        26.0231   26.1662    2.3880 H         1 UNK         0.0719 
     91 H91        23.9706   27.5443    1.9828 H         1 UNK         0.0809 
     92 H92        24.9655   28.8345    1.3113 H         1 UNK         0.0809 
     93 H93        25.1320   28.3766    2.9987 H         1 UNK         0.0809 
     94 H94        25.5836   25.2656    0.4509 H         1 UNK         0.2990 
     95 H95        24.1944   25.9498   -2.2668 H         1 UNK         0.0690 
     96 H96        25.8369   25.5199   -4.1133 H         1 UNK         0.0788 
     97 H97        27.1409   26.1458   -3.1046 H         1 UNK         0.0788 
     98 H98        25.8384   27.2043   -3.6290 H         1 UNK         0.0788 
     99 H99        26.4588   24.0996   -1.8696 H         1 UNK         0.2993 
    100 H100       24.6739   21.8999    0.2145 H         1 UNK         0.0949 
    101 H101       25.6312   21.4540   -2.6695 H         1 UNK         0.0767 
    102 H102       25.3969   20.2018   -1.4501 H         1 UNK         0.0767 
    103 H103       24.0176   21.0974   -2.0659 H         1 UNK         0.0767 
    104 H104       27.3355   21.9293   -0.9370 H         1 UNK         0.3013 
    105 H105       27.9839   29.5467   -0.6713 H         1 UNK         0.3121 
    106 H106       27.3974   31.6840   -0.6944 H         1 UNK         0.0774 
    107 H107       29.1647   33.4083   -0.9200 H         1 UNK         0.0815 
    108 H108       30.3776   32.2891   -0.3192 H         1 UNK         0.0815 
    109 H109       29.5785   31.9841   -1.8589 H         1 UNK         0.0815 
    110 H110       26.8996   30.4502    1.6375 H         1 UNK         0.2987 
    111 H111       26.2108   30.6701    3.7259 H         1 UNK         0.0949 
    112 H112       26.6606   33.6925    3.4869 H         1 UNK         0.0806 
    113 H113       25.1852   32.8407    3.0322 H         1 UNK         0.0806 
    114 H114       25.7071   32.8698    4.7087 H         1 UNK         0.0806 
    115 H115       28.4616   29.5583    3.5682 H         1 UNK         0.3010 
    116 H116       30.3082   28.8823    4.5478 H         1 UNK         0.0829 
    117 H117       28.7859   28.8025    6.5227 H         1 UNK         0.0813 
    118 H118       30.4400   29.1068    7.0180 H         1 UNK         0.0813 
    119 H119       29.2859   30.4281    6.9907 H         1 UNK         0.0813 
    120 H120       30.8598   30.9800    2.8659 H         1 UNK         0.3038 
    121 H121       32.3143   33.1191    4.0995 H         1 UNK         0.0769 
    122 H122       32.3106   32.1320    1.1983 H         1 UNK         0.0811 
    123 H123       31.2259   33.3423    1.8833 H         1 UNK         0.0811 
    124 H124       32.9448   33.6764    1.7515 H         1 UNK         0.0811 
    125 H125       33.3409   30.0089    2.6956 H         1 UNK         0.3204 
    126 H126       36.1982   30.6324    2.9987 H         1 UNK         0.0748 
    127 H127       34.8279   28.0419    2.1163 H         1 UNK         0.0771 
    128 H128       36.5246   28.4471    1.9303 H         1 UNK         0.0771 
    129 H129       35.3133   29.3408    1.0267 H         1 UNK         0.0771 
    130 H130       33.7851   29.4411    5.1208 H         1 UNK         0.2980 
    131 H131       35.3546   27.4117    6.4317 H         1 UNK         0.0545 
    132 H132       36.0183   27.4172    8.7427 H         1 UNK         0.3459 
    133 H133       36.5747   28.9219    9.4259 H         1 UNK         0.3459 
    134 H134       33.4784   27.1795    7.9850 H         1 UNK         0.0616 
    135 H135       32.8074   28.7142    7.4953 H         1 UNK         0.0616 
    136 H136       32.9394   24.7890    6.5370 H         1 UNK         0.0634 
    137 H137       34.2651   25.5576    5.6913 H         1 UNK         0.0634 
@<TRIPOS>BOND
     1    1    2 1    
     2    1   72 1    
     3    1   73 1    
     4    1   74 1    
     5    2    3 2    
     6    2    4 am   BACKBONE|DICT|INTERRES
     7    4    5 1    
     8    4   75 1    
     9    5    6 1    
    10    5   35 1    
    11    5   76 1    
    12    6    7 1    
    13    6   77 1    
    14    6   78 1    
    15    7    8 1    
    16    8    9 1    
    17    8   79 1    
    18    8   80 1    
    19    9   10 ar   
    20    9   14 ar   
    21   10   11 ar   
    22   10   81 1    
    23   11   12 ar   
    24   11   71 1    
    25   12   13 ar   
    26   12   82 1    
    27   13   14 ar   
    28   13   15 1    
    29   14   83 1    
    30   15   16 1    
    31   15   84 1    
    32   15   85 1    
    33   16   17 1    
    34   17   18 1    
    35   17   86 1    
    36   17   87 1    
    37   18   19 1    
    38   18   37 1    
    39   18   88 1    
    40   19   20 am   BACKBONE|DICT|INTERRES
    41   19   89 1    
    42   20   21 2    
    43   20   22 1    
    44   22   23 1    
    45   22   24 1    
    46   22   90 1    
    47   23   91 1    
    48   23   92 1    
    49   23   93 1    
    50   24   25 am   BACKBONE|DICT|INTERRES
    51   24   94 1    
    52   25   26 2    
    53   25   27 1    
    54   27   28 1    
    55   27   29 1    
    56   27   95 1    
    57   28   96 1    
    58   28   97 1    
    59   28   98 1    
    60   29   30 am   BACKBONE|DICT|INTERRES
    61   29   99 1    
    62   30   31 2    
    63   30   32 1    
    64   32   33 1    
    65   32   34 1    
    66   32  100 1    
    67   33  101 1    
    68   33  102 1    
    69   33  103 1    
    70   34   35 am   BACKBONE|DICT|INTERRES
    71   34  104 1    
    72   35   36 2    
    73   37   38 2    
    74   37   39 am   BACKBONE|DICT|INTERRES
    75   39   40 1    
    76   39  105 1    
    77   40   41 1    
    78   40   42 1    
    79   40  106 1    
    80   41  107 1    
    81   41  108 1    
    82   41  109 1    
    83   42   43 2    
    84   42   44 am   BACKBONE|DICT|INTERRES
    85   44   45 1    
    86   44  110 1    
    87   45   46 1    
    88   45   47 1    
    89   45  111 1    
    90   46  112 1    
    91   46  113 1    
    92   46  114 1    
    93   47   48 2    
    94   47   49 am   BACKBONE|DICT|INTERRES
    95   49   50 1    
    96   49  115 1    
    97   50   51 1    
    98   50   52 1    
    99   50  116 1    
   100   51  117 1    
   101   51  118 1    
   102   51  119 1    
   103   52   53 2    
   104   52   54 am   BACKBONE|DICT|INTERRES
   105   54   55 1    
   106   54  120 1    
   107   55   56 1    
   108   55   57 1    
   109   55  121 1    
   110   56  122 1    
   111   56  123 1    
   112   56  124 1    
   113   57   58 2    
   114   57   59 am   BACKBONE|DICT|INTERRES
   115   59   60 1    
   116   59  125 1    
   117   60   61 1    
   118   60   62 1    
   119   60  126 1    
   120   61  127 1    
   121   61  128 1    
   122   61  129 1    
   123   62   63 2    
   124   62   64 am   BACKBONE|DICT|INTERRES
   125   64   65 1    
   126   64  130 1    
   127   65   66 1    
   128   65   69 1    
   129   65  131 1    
   130   66   67 am   BACKBONE|DICT|INTERRES
   131   66   68 2    
   132   67  132 1    
   133   67  133 1    
   134   69   70 1    
   135   69  134 1    
   136   69  135 1    
   137   70   71 1    
   138   71  136 1    
   139   71  137 1    
@<TRIPOS>SUBSTRUCTURE
     1 UNK         1 GROUP             0       ****    0 ROOT    
