@<TRIPOS>MOLECULE
3R136
137   139    1
SMALL
USER_CHARGES


@<TRIPOS>ATOM
      1 CA         32.5320   21.8303   -2.2200 C.3       0 UNK        -0.1979 
      2 C          32.3062   23.2417   -1.6999 C.2       0 UNK         0.4864 
      3 O          32.8586   24.1956   -2.2498 O.2       0 UNK        -0.5359 
      4 N          31.4838   23.3901   -0.6542 N.am      1 UNK        -0.4318 
      5 CA         31.1365   24.6463    0.0260 C.3       1 UNK         0.0824 
      6 C6         30.6971   24.3914    1.4951 C.3       12 UNK        -0.0944 
      7 S7         29.4692   23.0463    1.6742 S.3       12 UNK        -0.2672 
      8 C8         30.0773   22.1829    3.1572 C.3       12 UNK         0.0333 
      9 C9         29.7269   22.9720    4.4065 C.ar      12 UNK        -0.0807 
     10 C10        30.6587   23.8318    4.9927 C.ar      12 UNK        -0.0894 
     11 C11        30.3015   24.6170    6.0928 C.ar      12 UNK        -0.0804 
     12 C12        29.0050   24.5350    6.6109 C.ar      12 UNK        -0.0824 
     13 C13        28.0663   23.6760    6.0299 C.ar      12 UNK        -0.0762 
     14 C14        28.4421   22.8792    4.9445 C.ar      12 UNK        -0.0782 
     15 C15        26.6282   23.6496    6.5261 C.3       12 UNK         0.0230 
     16 S16        25.4543   24.0867    5.1990 S.3       12 UNK        -0.2608 
     17 C17        25.8452   25.8462    4.8942 C.3       12 UNK        -0.0989 
     18 CA         26.9946   26.0972    3.8708 C.3       5 UNK         0.0716 
     19 N          26.8819   25.3257    2.6250 N.am      5 UNK        -0.4135 
     20 C          25.9277   25.4493    1.6931 C.2       4 UNK         0.5031 
     21 O          24.9625   26.2110    1.7811 O.2       4 UNK        -0.5229 
     22 CA         26.1159   24.5887    0.4379 C.3       4 UNK         0.0329 
     23 CB         25.0049   23.5327    0.2671 C.3       4 UNK        -0.2001 
     24 N          26.3142   25.4449   -0.7347 N.am      4 UNK        -0.4303 
     25 C          25.4106   26.0624   -1.5110 C.2       3 UNK         0.5044 
     26 O          24.1922   25.9075   -1.4202 O.2       3 UNK        -0.5152 
     27 CA         25.9438   27.0323   -2.5893 C.3       3 UNK         0.0319 
     28 CB         25.3590   28.4424   -2.3917 C.3       3 UNK        -0.2001 
     29 N          27.4053   27.1410   -2.6489 N.am      3 UNK        -0.4354 
     30 C          28.2432   26.2196   -3.1429 C.2       2 UNK         0.4964 
     31 O          27.8772   25.1480   -3.6263 O.2       2 UNK        -0.5047 
     32 CA         29.7492   26.5370   -3.0716 C.3       2 UNK         0.0288 
     33 CB         30.0719   28.0331   -2.8616 C.3       2 UNK        -0.2113 
     34 N          30.4515   25.7251   -2.0719 N.am      2 UNK        -0.4145 
     35 C          30.1486   25.5291   -0.7789 C.2       1 UNK         0.5006 
     36 O          29.1587   26.0161   -0.2243 O.2       1 UNK        -0.5103 
     37 C          27.2220   27.6041    3.6070 C.2       5 UNK         0.5055 
     38 O          26.7665   28.4424    4.3891 O.2       5 UNK        -0.5220 
     39 N          27.9159   27.9324    2.5066 N.am      6 UNK        -0.4450 
     40 CA         28.1801   29.2960    2.0449 C.3       6 UNK         0.0367 
     41 CB         28.4925   29.2450    0.5402 C.3       6 UNK        -0.1929 
     42 C          29.3077   29.9697    2.8479 C.2       6 UNK         0.5070 
     43 O          30.3556   30.2920    2.2870 O.2       6 UNK        -0.5237 
     44 N          29.0899   30.1544    4.1542 N.am      7 UNK        -0.4739 
     45 CA         30.0431   30.7553    5.0886 C.3       7 UNK         0.0276 
     46 CB         29.4343   30.7699    6.4989 C.3       7 UNK        -0.1927 
     47 C          30.4847   32.1676    4.6627 C.2       7 UNK         0.5013 
     48 O          29.6375   32.9800    4.2868 O.2       7 UNK        -0.5193 
     49 N          31.8019   32.4010    4.7221 N.am      8 UNK        -0.4253 
     50 CA         32.5678   33.5805    4.2947 C.3       8 UNK         0.0242 
     51 CB         31.9018   34.9249    4.6541 C.3       8 UNK        -0.2000 
     52 C          33.0053   33.5204    2.8212 C.2       8 UNK         0.4948 
     53 O          34.0174   34.1391    2.4884 O.2       8 UNK        -0.5275 
     54 N          32.2982   32.7543    1.9776 N.am      9 UNK        -0.4246 
     55 CA         32.7948   32.3240    0.6663 C.3       9 UNK         0.0261 
     56 CB         31.6271   32.1560   -0.3217 C.3       9 UNK        -0.1959 
     57 C          33.5863   31.0175    0.8361 C.2       9 UNK         0.5033 
     58 O          34.7294   30.9266    0.3862 O.2       9 UNK        -0.5390 
     59 N          32.9692   30.0590    1.5336 N.am      10 UNK        -0.4215 
     60 CA         33.5626   28.8402    2.0686 C.3       10 UNK         0.0240 
     61 CB         32.6739   27.6546    1.6416 C.3       10 UNK        -0.1982 
     62 C          33.6542   28.9604    3.6030 C.2       10 UNK         0.4970 
     63 O          33.4148   30.0365    4.1608 O.2       10 UNK        -0.4916 
     64 N          33.9823   27.8414    4.2592 N.am      11 UNK        -0.4279 
     65 CA         34.0947   27.6959    5.7212 C.3       11 UNK         0.1003 
     66 C          35.3243   28.4510    6.3141 C.2       11 UNK         0.5709 
     67 N          35.3757   28.6633    7.6230 N.am      11 UNK        -0.7358 
     68 O          36.2660   28.8049    5.6059 O.2       11 UNK        -0.4999 
     69 C69        32.7594   27.9792    6.4823 C.3       12 UNK        -0.0954 
     70 S70        31.3084   27.1435    5.7565 S.3       12 UNK        -0.2268 
     71 C71        31.3086   25.5848    6.6878 C.3       12 UNK         0.0203 
     72 H72        33.5910   21.5783   -2.1718 H         1 UNK         0.0888 
     73 H73        31.9806   21.0897   -1.6409 H         1 UNK         0.0888 
     74 H74        32.2107   21.7571   -3.2586 H         1 UNK         0.0888 
     75 H75        31.0274   22.5751   -0.2673 H         1 UNK         0.3017 
     76 H76        32.0521   25.2383    0.0787 H         1 UNK         0.0873 
     77 H77        31.5838   24.1268    2.0721 H         1 UNK         0.0745 
     78 H78        30.3130   25.2968    1.9689 H         1 UNK         0.0745 
     79 H79        31.1530   22.0152    3.0847 H         1 UNK         0.0705 
     80 H80        29.6168   21.1950    3.2056 H         1 UNK         0.0705 
     81 H81        31.6527   23.9157    4.5753 H         1 UNK         0.1334 
     82 H82        28.7203   25.1634    7.4438 H         1 UNK         0.1417 
     83 H83        27.7131   22.2277    4.4813 H         1 UNK         0.1562 
     84 H84        26.4872   24.3253    7.3712 H         1 UNK         0.0748 
     85 H85        26.3965   22.6472    6.8885 H         1 UNK         0.0748 
     86 H86        26.0802   26.3179    5.8502 H         1 UNK         0.0940 
     87 H87        24.9274   26.3242    4.5467 H         1 UNK         0.0940 
     88 H88        27.9253   25.7643    4.3269 H         1 UNK         0.0703 
     89 H89        27.6288   24.6635    2.4599 H         1 UNK         0.3081 
     90 H90        27.0513   24.0393    0.5336 H         1 UNK         0.0719 
     91 H91        24.0098   23.9781    0.2757 H         1 UNK         0.0809 
     92 H92        25.1209   22.9784   -0.6641 H         1 UNK         0.0809 
     93 H93        25.0360   22.8104    1.0835 H         1 UNK         0.0809 
     94 H94        27.2856   25.6998   -0.8844 H         1 UNK         0.2990 
     95 H95        25.5959   26.6544   -3.5530 H         1 UNK         0.0690 
     96 H96        25.6891   29.1244   -3.1756 H         1 UNK         0.0788 
     97 H97        25.6469   28.8681   -1.4299 H         1 UNK         0.0788 
     98 H98        24.2688   28.4229   -2.4236 H         1 UNK         0.0788 
     99 H99        27.8099   27.9788   -2.2576 H         1 UNK         0.2993 
    100 H100       30.1586   26.2497   -4.0415 H         1 UNK         0.0949 
    101 H101       29.7700   28.3884   -1.8787 H         1 UNK         0.0767 
    102 H102       31.1427   28.2152   -2.9560 H         1 UNK         0.0767 
    103 H103       29.5779   28.6548   -3.6099 H         1 UNK         0.0767 
    104 H104       31.2919   25.2558   -2.4019 H         1 UNK         0.3013 
    105 H105       28.2738   27.1896    1.9216 H         1 UNK         0.3121 
    106 H106       27.2768   29.8948    2.1798 H         1 UNK         0.0774 
    107 H107       27.6915   28.7592   -0.0158 H         1 UNK         0.0815 
    108 H108       28.6152   30.2483    0.1308 H         1 UNK         0.0815 
    109 H109       29.4161   28.6972    0.3514 H         1 UNK         0.0815 
    110 H110       28.2071   29.8253    4.5319 H         1 UNK         0.2987 
    111 H111       30.9184   30.1049    5.1013 H         1 UNK         0.0949 
    112 H112       28.5248   31.3707    6.5380 H         1 UNK         0.0806 
    113 H113       29.1879   29.7618    6.8337 H         1 UNK         0.0806 
    114 H114       30.1352   31.1884    7.2224 H         1 UNK         0.0806 
    115 H115       32.3909   31.6012    4.9399 H         1 UNK         0.3010 
    116 H116       33.4906   33.5255    4.8747 H         1 UNK         0.0829 
    117 H117       31.5900   34.9508    5.6981 H         1 UNK         0.0813 
    118 H118       32.5983   35.7505    4.5025 H         1 UNK         0.0813 
    119 H119       31.0295   35.1289    4.0329 H         1 UNK         0.0813 
    120 H120       31.4835   32.2702    2.3343 H         1 UNK         0.3038 
    121 H121       33.4690   33.0793    0.2564 H         1 UNK         0.0769 
    122 H122       31.9934   31.8594   -1.3053 H         1 UNK         0.0811 
    123 H123       31.0807   33.0906   -0.4479 H         1 UNK         0.0811 
    124 H124       30.9161   31.3959    0.0000 H         1 UNK         0.0811 
    125 H125       32.0165   30.2363    1.8577 H         1 UNK         0.3204 
    126 H126       34.5711   28.7004    1.6745 H         1 UNK         0.0748 
    127 H127       33.1271   26.6981    1.9025 H         1 UNK         0.0771 
    128 H128       31.6920   27.6955    2.1166 H         1 UNK         0.0771 
    129 H129       32.5184   27.6518    0.5626 H         1 UNK         0.0771 
    130 H130       34.1956   27.0126    3.7259 H         1 UNK         0.2980 
    131 H131       34.3279   26.6417    5.8720 H         1 UNK         0.0545 
    132 H132       36.1793   29.1337    8.0091 H         1 UNK         0.3459 
    133 H133       34.6299   28.3655    8.2313 H         1 UNK         0.3459 
    134 H134       32.8386   27.6734    7.5264 H         1 UNK         0.0616 
    135 H135       32.5535   29.0498    6.5022 H         1 UNK         0.0616 
    136 H136       32.3061   25.1433    6.6635 H         1 UNK         0.0634 
    137 H137       31.0789   25.7854    7.7353 H         1 UNK         0.0634 
@<TRIPOS>BOND
     1    1    2 1    
     2    1   72 1    
     3    1   73 1    
     4    1   74 1    
     5    2    3 2    
     6    2    4 am   BACKBONE|DICT|INTERRES
     7    4    5 1    
     8    4   75 1    
     9    5    6 1    
    10    5   35 1    
    11    5   76 1    
    12    6    7 1    
    13    6   77 1    
    14    6   78 1    
    15    7    8 1    
    16    8    9 1    
    17    8   79 1    
    18    8   80 1    
    19    9   10 ar   
    20    9   14 ar   
    21   10   11 ar   
    22   10   81 1    
    23   11   12 ar   
    24   11   71 1    
    25   12   13 ar   
    26   12   82 1    
    27   13   14 ar   
    28   13   15 1    
    29   14   83 1    
    30   15   16 1    
    31   15   84 1    
    32   15   85 1    
    33   16   17 1    
    34   17   18 1    
    35   17   86 1    
    36   17   87 1    
    37   18   19 1    
    38   18   37 1    
    39   18   88 1    
    40   19   20 am   BACKBONE|DICT|INTERRES
    41   19   89 1    
    42   20   21 2    
    43   20   22 1    
    44   22   23 1    
    45   22   24 1    
    46   22   90 1    
    47   23   91 1    
    48   23   92 1    
    49   23   93 1    
    50   24   25 am   BACKBONE|DICT|INTERRES
    51   24   94 1    
    52   25   26 2    
    53   25   27 1    
    54   27   28 1    
    55   27   29 1    
    56   27   95 1    
    57   28   96 1    
    58   28   97 1    
    59   28   98 1    
    60   29   30 am   BACKBONE|DICT|INTERRES
    61   29   99 1    
    62   30   31 2    
    63   30   32 1    
    64   32   33 1    
    65   32   34 1    
    66   32  100 1    
    67   33  101 1    
    68   33  102 1    
    69   33  103 1    
    70   34   35 am   BACKBONE|DICT|INTERRES
    71   34  104 1    
    72   35   36 2    
    73   37   38 2    
    74   37   39 am   BACKBONE|DICT|INTERRES
    75   39   40 1    
    76   39  105 1    
    77   40   41 1    
    78   40   42 1    
    79   40  106 1    
    80   41  107 1    
    81   41  108 1    
    82   41  109 1    
    83   42   43 2    
    84   42   44 am   BACKBONE|DICT|INTERRES
    85   44   45 1    
    86   44  110 1    
    87   45   46 1    
    88   45   47 1    
    89   45  111 1    
    90   46  112 1    
    91   46  113 1    
    92   46  114 1    
    93   47   48 2    
    94   47   49 am   BACKBONE|DICT|INTERRES
    95   49   50 1    
    96   49  115 1    
    97   50   51 1    
    98   50   52 1    
    99   50  116 1    
   100   51  117 1    
   101   51  118 1    
   102   51  119 1    
   103   52   53 2    
   104   52   54 am   BACKBONE|DICT|INTERRES
   105   54   55 1    
   106   54  120 1    
   107   55   56 1    
   108   55   57 1    
   109   55  121 1    
   110   56  122 1    
   111   56  123 1    
   112   56  124 1    
   113   57   58 2    
   114   57   59 am   BACKBONE|DICT|INTERRES
   115   59   60 1    
   116   59  125 1    
   117   60   61 1    
   118   60   62 1    
   119   60  126 1    
   120   61  127 1    
   121   61  128 1    
   122   61  129 1    
   123   62   63 2    
   124   62   64 am   BACKBONE|DICT|INTERRES
   125   64   65 1    
   126   64  130 1    
   127   65   66 1    
   128   65   69 1    
   129   65  131 1    
   130   66   67 am   BACKBONE|DICT|INTERRES
   131   66   68 2    
   132   67  132 1    
   133   67  133 1    
   134   69   70 1    
   135   69  134 1    
   136   69  135 1    
   137   70   71 1    
   138   71  136 1    
   139   71  137 1    
@<TRIPOS>SUBSTRUCTURE
     1 UNK         1 GROUP             0       ****    0 ROOT    
