@<TRIPOS>MOLECULE
3R136
137   139    1
SMALL
USER_CHARGES


@<TRIPOS>ATOM
      1 CA         25.2816   26.1548    5.2503 C.3       0 UNK        -0.1979 
      2 C          26.1557   24.9871    4.8184 C.2       0 UNK         0.4864 
      3 O          25.9108   23.8561    5.2410 O.2       0 UNK        -0.5359 
      4 N          27.1669   25.2480    3.9792 N.am      1 UNK        -0.4318 
      5 CA         28.0411   24.2217    3.4009 C.3       1 UNK         0.0824 
      6 C6         29.3588   24.8169    2.8522 C.3       12 UNK        -0.0944 
      7 S7         30.5084   25.3713    4.1517 S.3       12 UNK        -0.2672 
      8 C8         32.1006   24.8100    3.4574 C.3       12 UNK         0.0333 
      9 C9         32.6044   25.7535    2.3721 C.ar      12 UNK        -0.0807 
     10 C10        33.6040   26.6830    2.6656 C.ar      12 UNK        -0.0894 
     11 C11        34.0641   27.5660    1.6863 C.ar      12 UNK        -0.0804 
     12 C12        33.5042   27.5281    0.4059 C.ar      12 UNK        -0.0824 
     13 C13        32.5009   26.6051    0.0912 C.ar      12 UNK        -0.0762 
     14 C14        32.0797   25.7015    1.0758 C.ar      12 UNK        -0.0782 
     15 C15        31.9126   26.6103   -1.3233 C.3       12 UNK         0.0230 
     16 S16        30.2274   25.9156   -1.4891 S.3       12 UNK        -0.2608 
     17 C17        29.2449   27.0363   -0.4378 C.3       12 UNK        -0.0989 
     18 CA         28.4496   28.0949   -1.2383 C.3       5 UNK         0.0716 
     19 N          27.5024   27.4788   -2.1713 N.am      5 UNK        -0.4135 
     20 C          27.0372   28.0604   -3.2837 C.2       4 UNK         0.5031 
     21 O          27.3350   29.2012   -3.6400 O.2       4 UNK        -0.5229 
     22 CA         26.0958   27.2185   -4.1638 C.3       4 UNK         0.0329 
     23 CB         26.9082   26.3717   -5.1574 C.3       4 UNK        -0.2001 
     24 N          25.2176   26.3414   -3.3850 N.am      4 UNK        -0.4303 
     25 C          24.1391   26.7622   -2.7091 C.2       3 UNK         0.5044 
     26 O          23.7396   27.9269   -2.7106 O.2       3 UNK        -0.5152 
     27 CA         23.3850   25.7090   -1.8740 C.3       3 UNK         0.0319 
     28 CB         22.2999   25.0265   -2.7226 C.3       3 UNK        -0.2001 
     29 N          24.2440   24.6846   -1.2636 N.am      3 UNK        -0.4354 
     30 C          25.2373   24.9420   -0.4032 C.2       2 UNK         0.4964 
     31 O          25.5879   26.0803   -0.0843 O.2       2 UNK        -0.5047 
     32 CA         26.0001   23.7435    0.1664 C.3       2 UNK         0.0288 
     33 CB         27.0054   23.2046   -0.8714 C.3       2 UNK        -0.2113 
     34 N          26.6992   24.2070    1.3609 N.am      2 UNK        -0.4145 
     35 C          27.3134   23.4545    2.2797 C.2       1 UNK         0.5006 
     36 O          27.3349   22.2226    2.2623 O.2       1 UNK        -0.5103 
     37 C          27.7477   29.0467   -0.2522 C.2       5 UNK         0.5055 
     38 O          28.3301   30.0690    0.1120 O.2       5 UNK        -0.5220 
     39 N          26.5431   28.6603    0.1951 N.am      6 UNK        -0.4450 
     40 CA         25.8259   29.1667    1.3675 C.3       6 UNK         0.0367 
     41 CB         25.4916   30.6698    1.2347 C.3       6 UNK        -0.1929 
     42 C          26.5789   28.7965    2.6617 C.2       6 UNK         0.5070 
     43 O          27.3139   27.8029    2.6872 O.2       6 UNK        -0.5237 
     44 N          26.3838   29.5742    3.7322 N.am      7 UNK        -0.4739 
     45 CA         27.0827   29.4238    5.0113 C.3       7 UNK         0.0276 
     46 CB         26.1958   29.9894    6.1361 C.3       7 UNK        -0.1927 
     47 C          28.4717   30.0855    4.9499 C.2       7 UNK         0.5013 
     48 O          28.7176   31.0674    5.6521 O.2       7 UNK        -0.5193 
     49 N          29.3309   29.5582    4.0678 N.am      8 UNK        -0.4253 
     50 CA         30.6907   30.0325    3.8186 C.3       8 UNK         0.0242 
     51 CB         31.1968   29.4542    2.4855 C.3       8 UNK        -0.2000 
     52 C          31.6203   29.7151    5.0008 C.2       8 UNK         0.4948 
     53 O          31.9132   30.6117    5.7921 O.2       8 UNK        -0.5275 
     54 N          32.0558   28.4496    5.1007 N.am      9 UNK        -0.4246 
     55 CA         32.8472   27.8079    6.1671 C.3       9 UNK         0.0261 
     56 CB         32.0278   27.7362    7.4690 C.3       9 UNK        -0.1959 
     57 C          34.2520   28.3839    6.4512 C.2       9 UNK         0.5033 
     58 O          35.1740   27.6083    6.7079 O.2       9 UNK        -0.5390 
     59 N          34.3937   29.7139    6.4214 N.am      10 UNK        -0.4215 
     60 CA         35.5476   30.4998    6.8741 C.3       10 UNK         0.0240 
     61 CB         35.2259   31.9934    6.7006 C.3       10 UNK        -0.1982 
     62 C          36.8989   30.1687    6.2170 C.2       10 UNK         0.4970 
     63 O          37.9342   30.4375    6.8283 O.2       10 UNK        -0.4916 
     64 N          36.8783   29.6024    5.0043 N.am      11 UNK        -0.4279 
     65 CA         38.0760   29.1211    4.3005 C.3       11 UNK         0.1003 
     66 C          38.6991   27.8197    4.8930 C.2       11 UNK         0.5709 
     67 N          38.0236   27.0997    5.7834 N.am      11 UNK        -0.7358 
     68 O          39.8247   27.4680    4.5472 O.2       11 UNK        -0.4999 
     69 C69        37.8495   29.0471    2.7660 C.3       12 UNK        -0.0954 
     70 S70        36.7501   27.6946    2.2268 S.3       12 UNK        -0.2268 
     71 C71        35.1648   28.5576    2.0234 C.3       12 UNK         0.0203 
     72 H72        24.2620   25.8174    5.4350 H         1 UNK         0.0888 
     73 H73        25.6657   26.5946    6.1701 H         1 UNK         0.0888 
     74 H74        25.2388   26.9269    4.4845 H         1 UNK         0.0888 
     75 H75        27.3097   26.1956    3.6356 H         1 UNK         0.3017 
     76 H76        28.2922   23.4974    4.1794 H         1 UNK         0.0873 
     77 H77        29.8667   24.0659    2.2455 H         1 UNK         0.0745 
     78 H78        29.1614   25.6638    2.1958 H         1 UNK         0.0745 
     79 H79        32.0095   23.7961    3.0653 H         1 UNK         0.0705 
     80 H80        32.8277   24.7490    4.2685 H         1 UNK         0.0705 
     81 H81        34.0406   26.7144    3.6539 H         1 UNK         0.1334 
     82 H82        33.8533   28.2181   -0.3503 H         1 UNK         0.1417 
     83 H83        31.3294   24.9642    0.8363 H         1 UNK         0.1562 
     84 H84        32.5814   26.0461   -1.9743 H         1 UNK         0.0748 
     85 H85        31.8939   27.6304   -1.7104 H         1 UNK         0.0748 
     86 H86        29.9022   27.5185    0.2884 H         1 UNK         0.0940 
     87 H87        28.5580   26.4198    0.1434 H         1 UNK         0.0940 
     88 H88        29.1647   28.6892   -1.8118 H         1 UNK         0.0703 
     89 H89        27.1920   26.5463   -1.9457 H         1 UNK         0.3081 
     90 H90        25.4739   27.9088   -4.7383 H         1 UNK         0.0719 
     91 H91        27.5479   25.6495   -4.6482 H         1 UNK         0.0809 
     92 H92        26.2561   25.8232   -5.8374 H         1 UNK         0.0809 
     93 H93        27.5539   27.0030   -5.7696 H         1 UNK         0.0809 
     94 H94        25.4574   25.3615   -3.3452 H         1 UNK         0.2990 
     95 H95        22.8907   26.2420   -1.0589 H         1 UNK         0.0690 
     96 H96        21.6829   24.3610   -2.1185 H         1 UNK         0.0788 
     97 H97        22.7307   24.4411   -3.5358 H         1 UNK         0.0788 
     98 H98        21.6327   25.7646   -3.1704 H         1 UNK         0.0788 
     99 H99        24.0301   23.7230   -1.4886 H         1 UNK         0.2993 
    100 H100       25.2874   22.9654    0.4470 H         1 UNK         0.0949 
    101 H101       27.7430   23.9593   -1.1476 H         1 UNK         0.0767 
    102 H102       27.5460   22.3373   -0.4924 H         1 UNK         0.0767 
    103 H103       26.5008   22.8889   -1.7852 H         1 UNK         0.0767 
    104 H104       26.6809   25.2144    1.4706 H         1 UNK         0.3013 
    105 H105       26.1964   27.7575   -0.1260 H         1 UNK         0.3121 
    106 H106       24.8841   28.6169    1.3970 H         1 UNK         0.0774 
    107 H107       24.7549   30.9791    1.9766 H         1 UNK         0.0815 
    108 H108       26.3726   31.2997    1.3632 H         1 UNK         0.0815 
    109 H109       25.0659   30.8916    0.2560 H         1 UNK         0.0815 
    110 H110       25.7900   30.3856    3.6370 H         1 UNK         0.2987 
    111 H111       27.2452   28.3646    5.2206 H         1 UNK         0.0949 
    112 H112       25.9873   31.0506    5.9939 H         1 UNK         0.0806 
    113 H113       25.2420   29.4645    6.1902 H         1 UNK         0.0806 
    114 H114       26.6801   29.8791    7.1073 H         1 UNK         0.0806 
    115 H115       29.0040   28.7765    3.5112 H         1 UNK         0.3010 
    116 H116       30.6577   31.1194    3.7154 H         1 UNK         0.0829 
    117 H117       30.6128   29.8359    1.6481 H         1 UNK         0.0813 
    118 H118       32.2341   29.7376    2.3047 H         1 UNK         0.0813 
    119 H119       31.1366   28.3662    2.4548 H         1 UNK         0.0813 
    120 H120       31.7495   27.8133    4.3767 H         1 UNK         0.3038 
    121 H121       33.0041   26.7811    5.8347 H         1 UNK         0.0769 
    122 H122       31.7999   28.7278    7.8614 H         1 UNK         0.0811 
    123 H123       32.5721   27.1962    8.2451 H         1 UNK         0.0811 
    124 H124       31.0843   27.2129    7.3125 H         1 UNK         0.0811 
    125 H125       33.5442   30.2395    6.2075 H         1 UNK         0.3204 
    126 H126       35.6626   30.3000    7.9412 H         1 UNK         0.0748 
    127 H127       36.0452   32.6177    7.0604 H         1 UNK         0.0771 
    128 H128       35.0551   32.2483    5.6538 H         1 UNK         0.0771 
    129 H129       34.3355   32.2756    7.2631 H         1 UNK         0.0771 
    130 H130       35.9888   29.3832    4.5859 H         1 UNK         0.2980 
    131 H131       38.8424   29.8849    4.4466 H         1 UNK         0.0545 
    132 H132       37.0883   27.3675    6.0711 H         1 UNK         0.3459 
    133 H133       38.4432   26.2654    6.1604 H         1 UNK         0.3459 
    134 H134       38.8074   28.9088    2.2617 H         1 UNK         0.0616 
    135 H135       37.4634   29.9984    2.3965 H         1 UNK         0.0616 
    136 H136       35.2621   29.3139    1.2430 H         1 UNK         0.0634 
    137 H137       34.9061   29.0849    2.9421 H         1 UNK         0.0634 
@<TRIPOS>BOND
     1    1    2 1    
     2    1   72 1    
     3    1   73 1    
     4    1   74 1    
     5    2    3 2    
     6    2    4 am   BACKBONE|DICT|INTERRES
     7    4    5 1    
     8    4   75 1    
     9    5    6 1    
    10    5   35 1    
    11    5   76 1    
    12    6    7 1    
    13    6   77 1    
    14    6   78 1    
    15    7    8 1    
    16    8    9 1    
    17    8   79 1    
    18    8   80 1    
    19    9   10 ar   
    20    9   14 ar   
    21   10   11 ar   
    22   10   81 1    
    23   11   12 ar   
    24   11   71 1    
    25   12   13 ar   
    26   12   82 1    
    27   13   14 ar   
    28   13   15 1    
    29   14   83 1    
    30   15   16 1    
    31   15   84 1    
    32   15   85 1    
    33   16   17 1    
    34   17   18 1    
    35   17   86 1    
    36   17   87 1    
    37   18   19 1    
    38   18   37 1    
    39   18   88 1    
    40   19   20 am   BACKBONE|DICT|INTERRES
    41   19   89 1    
    42   20   21 2    
    43   20   22 1    
    44   22   23 1    
    45   22   24 1    
    46   22   90 1    
    47   23   91 1    
    48   23   92 1    
    49   23   93 1    
    50   24   25 am   BACKBONE|DICT|INTERRES
    51   24   94 1    
    52   25   26 2    
    53   25   27 1    
    54   27   28 1    
    55   27   29 1    
    56   27   95 1    
    57   28   96 1    
    58   28   97 1    
    59   28   98 1    
    60   29   30 am   BACKBONE|DICT|INTERRES
    61   29   99 1    
    62   30   31 2    
    63   30   32 1    
    64   32   33 1    
    65   32   34 1    
    66   32  100 1    
    67   33  101 1    
    68   33  102 1    
    69   33  103 1    
    70   34   35 am   BACKBONE|DICT|INTERRES
    71   34  104 1    
    72   35   36 2    
    73   37   38 2    
    74   37   39 am   BACKBONE|DICT|INTERRES
    75   39   40 1    
    76   39  105 1    
    77   40   41 1    
    78   40   42 1    
    79   40  106 1    
    80   41  107 1    
    81   41  108 1    
    82   41  109 1    
    83   42   43 2    
    84   42   44 am   BACKBONE|DICT|INTERRES
    85   44   45 1    
    86   44  110 1    
    87   45   46 1    
    88   45   47 1    
    89   45  111 1    
    90   46  112 1    
    91   46  113 1    
    92   46  114 1    
    93   47   48 2    
    94   47   49 am   BACKBONE|DICT|INTERRES
    95   49   50 1    
    96   49  115 1    
    97   50   51 1    
    98   50   52 1    
    99   50  116 1    
   100   51  117 1    
   101   51  118 1    
   102   51  119 1    
   103   52   53 2    
   104   52   54 am   BACKBONE|DICT|INTERRES
   105   54   55 1    
   106   54  120 1    
   107   55   56 1    
   108   55   57 1    
   109   55  121 1    
   110   56  122 1    
   111   56  123 1    
   112   56  124 1    
   113   57   58 2    
   114   57   59 am   BACKBONE|DICT|INTERRES
   115   59   60 1    
   116   59  125 1    
   117   60   61 1    
   118   60   62 1    
   119   60  126 1    
   120   61  127 1    
   121   61  128 1    
   122   61  129 1    
   123   62   63 2    
   124   62   64 am   BACKBONE|DICT|INTERRES
   125   64   65 1    
   126   64  130 1    
   127   65   66 1    
   128   65   69 1    
   129   65  131 1    
   130   66   67 am   BACKBONE|DICT|INTERRES
   131   66   68 2    
   132   67  132 1    
   133   67  133 1    
   134   69   70 1    
   135   69  134 1    
   136   69  135 1    
   137   70   71 1    
   138   71  136 1    
   139   71  137 1    
@<TRIPOS>SUBSTRUCTURE
     1 UNK         1 GROUP             0       ****    0 ROOT    
