@<TRIPOS>MOLECULE
3R136
137   139    1
SMALL
USER_CHARGES


@<TRIPOS>ATOM
      1 CA         33.5012   18.8113    0.1111 C.3       0 UNK        -0.1979 
      2 C          33.0030   20.1292    0.6864 C.2       0 UNK         0.4864 
      3 O          33.7405   21.1163    0.6809 O.2       0 UNK        -0.5359 
      4 N          31.7616   20.1503    1.1895 N.am      1 UNK        -0.4318 
      5 CA         31.0943   21.3437    1.7181 C.3       1 UNK         0.0824 
      6 C6         29.8770   20.9519    2.5970 C.3       12 UNK        -0.0944 
      7 S7         29.4288   22.2532    3.7946 S.3       12 UNK        -0.2672 
      8 C8         27.8984   22.9065    3.0439 C.3       12 UNK         0.0333 
      9 C9         27.5306   24.3177    3.4993 C.ar      12 UNK        -0.0807 
     10 C10        28.5100   25.2829    3.7655 C.ar      12 UNK        -0.0894 
     11 C11        28.1547   26.5790    4.1501 C.ar      12 UNK        -0.0804 
     12 C12        26.8032   26.9166    4.2604 C.ar      12 UNK        -0.0824 
     13 C13        25.8136   25.9839    3.9353 C.ar      12 UNK        -0.0762 
     14 C14        26.1828   24.6831    3.5772 C.ar      12 UNK        -0.0782 
     15 C15        24.3477   26.3933    3.9117 C.3       12 UNK         0.0230 
     16 S16        23.7642   26.6821    2.2048 S.3       12 UNK        -0.2608 
     17 C17        24.5372   28.2840    1.7825 C.3       12 UNK        -0.0989 
     18 CA         25.9259   28.1256    1.1059 C.3       5 UNK         0.0716 
     19 N          25.9351   27.3650   -0.1412 N.am      5 UNK        -0.4135 
     20 C          25.3169   27.6430   -1.2967 C.2       4 UNK         0.5031 
     21 O          24.5514   28.5939   -1.4598 O.2       4 UNK        -0.5229 
     22 CA         25.6195   26.7144   -2.4946 C.3       4 UNK         0.0329 
     23 CB         26.4558   27.4582   -3.5496 C.3       4 UNK        -0.2001 
     24 N          26.3238   25.4822   -2.1209 N.am      4 UNK        -0.4303 
     25 C          25.7774   24.4654   -1.4405 C.2       3 UNK         0.5044 
     26 O          24.5748   24.3875   -1.1884 O.2       3 UNK        -0.5152 
     27 CA         26.7191   23.3591   -0.9241 C.3       3 UNK         0.0319 
     28 CB         26.5565   22.0820   -1.7641 C.3       3 UNK        -0.2001 
     29 N          28.1506   23.6880   -0.8419 N.am      3 UNK        -0.4354 
     30 C          28.7174   24.7082   -0.1817 C.2       2 UNK         0.4964 
     31 O          28.0822   25.6235    0.3413 O.2       2 UNK        -0.5047 
     32 CA         30.2532   24.6715   -0.0587 C.3       2 UNK         0.0288 
     33 CB         30.8314   26.0116    0.4365 C.3       2 UNK        -0.2113 
     34 N          30.6850   23.6070    0.8520 N.am      2 UNK        -0.4145 
     35 C          30.6919   22.2965    0.5705 C.2       1 UNK         0.5006 
     36 O          30.3617   21.8347   -0.5267 O.2       1 UNK        -0.5103 
     37 C          26.6893   29.4477    0.9273 C.2       5 UNK         0.5055 
     38 O          26.0953   30.5283    0.9487 O.2       5 UNK        -0.5220 
     39 N          28.0072   29.3134    0.7262 N.am      6 UNK        -0.4450 
     40 CA         28.9666   30.4136    0.6170 C.3       6 UNK         0.0367 
     41 CB         30.3014   29.8453    0.1045 C.3       6 UNK        -0.1929 
     42 C          29.1689   31.1625    1.9498 C.2       6 UNK         0.5070 
     43 O          28.7286   30.6975    3.0036 O.2       6 UNK        -0.5237 
     44 N          29.8531   32.3115    1.8738 N.am      7 UNK        -0.4739 
     45 CA         30.2233   33.1493    3.0190 C.3       7 UNK         0.0276 
     46 CB         30.8654   34.4444    2.4947 C.3       7 UNK        -0.1927 
     47 C          31.1845   32.4396    3.9888 C.2       7 UNK         0.5013 
     48 O          31.9360   31.5552    3.5719 O.2       7 UNK        -0.5193 
     49 N          31.1888   32.8828    5.2538 N.am      8 UNK        -0.4253 
     50 CA         31.9692   32.3152    6.3635 C.3       8 UNK         0.0242 
     51 CB         31.6790   33.1148    7.6441 C.3       8 UNK        -0.2000 
     52 C          33.4895   32.2194    6.1278 C.2       8 UNK         0.4948 
     53 O          34.1291   31.3429    6.7080 O.2       8 UNK        -0.5275 
     54 N          34.0356   33.0974    5.2746 N.am      9 UNK        -0.4246 
     55 CA         35.4323   33.0708    4.8331 C.3       9 UNK         0.0261 
     56 CB         35.7759   34.4140    4.1684 C.3       9 UNK        -0.1959 
     57 C          35.7533   31.9033    3.8788 C.2       9 UNK         0.5033 
     58 O          36.9036   31.4639    3.8428 O.2       9 UNK        -0.5390 
     59 N          34.7526   31.4332    3.1213 N.am      10 UNK        -0.4215 
     60 CA         34.8602   30.3028    2.1963 C.3       10 UNK         0.0240 
     61 CB         34.0364   30.6066    0.9344 C.3       10 UNK        -0.1982 
     62 C          34.3853   28.9913    2.8422 C.2       10 UNK         0.4970 
     63 O          34.9066   27.9316    2.4932 O.2       10 UNK        -0.4916 
     64 N          33.4077   29.0833    3.7542 N.am      11 UNK        -0.4279 
     65 CA         32.8492   27.9726    4.5368 C.3       11 UNK         0.1003 
     66 C          33.9075   27.2048    5.3816 C.2       11 UNK         0.5709 
     67 N          33.7275   25.9043    5.5695 N.am      11 UNK        -0.7358 
     68 O          34.8659   27.7793    5.8946 O.2       11 UNK        -0.4999 
     69 C69        31.6679   28.4688    5.4151 C.3       12 UNK        -0.0954 
     70 S70        30.4058   27.1802    5.6737 S.3       12 UNK        -0.2268 
     71 C71        29.2286   27.6350    4.3647 C.3       12 UNK         0.0203 
     72 H72        32.7542   18.0219    0.1934 H         1 UNK         0.0888 
     73 H73        34.3974   18.4861    0.6389 H         1 UNK         0.0888 
     74 H74        33.7508   18.9331   -0.9426 H         1 UNK         0.0888 
     75 H75        31.1928   19.3176    1.1346 H         1 UNK         0.3017 
     76 H76        31.8229   21.8599    2.3480 H         1 UNK         0.0873 
     77 H77        30.1197   20.0683    3.1900 H         1 UNK         0.0745 
     78 H78        29.0144   20.6684    1.9899 H         1 UNK         0.0745 
     79 H79        28.0008   22.9158    1.9607 H         1 UNK         0.0705 
     80 H80        27.0875   22.2124    3.2701 H         1 UNK         0.0705 
     81 H81        29.5567   25.0364    3.6623 H         1 UNK         0.1334 
     82 H82        26.5218   27.9254    4.5305 H         1 UNK         0.1417 
     83 H83        25.4148   23.9650    3.3229 H         1 UNK         0.1562 
     84 H84        24.1785   27.2847    4.5178 H         1 UNK         0.0748 
     85 H85        23.7450   25.6022    4.3603 H         1 UNK         0.0748 
     86 H86        24.6233   28.8803    2.6926 H         1 UNK         0.0940 
     87 H87        23.8561   28.8340    1.1313 H         1 UNK         0.0940 
     88 H88        26.5440   27.5303    1.7718 H         1 UNK         0.0703 
     89 H89        26.5768   26.5757   -0.1255 H         1 UNK         0.3081 
     90 H90        24.6626   26.4405   -2.9440 H         1 UNK         0.0719 
     91 H91        25.9459   28.3619   -3.8864 H         1 UNK         0.0809 
     92 H92        27.4269   27.7606   -3.1554 H         1 UNK         0.0809 
     93 H93        26.6269   26.8390   -4.4305 H         1 UNK         0.0809 
     94 H94        27.3187   25.4560   -2.2897 H         1 UNK         0.2990 
     95 H95        26.3927   23.1352    0.0932 H         1 UNK         0.0690 
     96 H96        27.1133   21.2494   -1.3332 H         1 UNK         0.0788 
     97 H97        26.9063   22.2271   -2.7870 H         1 UNK         0.0788 
     98 H98        25.5106   21.7756   -1.8169 H         1 UNK         0.0788 
     99 H99        28.7838   22.9708   -1.1811 H         1 UNK         0.2993 
    100 H100       30.6628   24.4750   -1.0521 H         1 UNK         0.0949 
    101 H101       30.4676   26.2702    1.4318 H         1 UNK         0.0767 
    102 H102       31.9207   25.9853    0.4747 H         1 UNK         0.0767 
    103 H103       30.5528   26.8236   -0.2356 H         1 UNK         0.0767 
    104 H104       30.9335   23.8956    1.7868 H         1 UNK         0.3013 
    105 H105       28.3943   28.3805    0.7377 H         1 UNK         0.3121 
    106 H106       28.5801   31.1240   -0.1169 H         1 UNK         0.0774 
    107 H107       30.7740   29.1957    0.8430 H         1 UNK         0.0815 
    108 H108       30.1656   29.2730   -0.8133 H         1 UNK         0.0815 
    109 H109       31.0050   30.6455   -0.1252 H         1 UNK         0.0815 
    110 H110       30.2027   32.6060    0.9738 H         1 UNK         0.2987 
    111 H111       29.3079   33.3974    3.5608 H         1 UNK         0.0949 
    112 H112       30.1870   34.9850    1.8342 H         1 UNK         0.0806 
    113 H113       31.1194   35.1198    3.3129 H         1 UNK         0.0806 
    114 H114       31.7839   34.2439    1.9409 H         1 UNK         0.0806 
    115 H115       30.5586   33.6338    5.4974 H         1 UNK         0.3010 
    116 H116       31.6086   31.2964    6.5150 H         1 UNK         0.0829 
    117 H117       32.2230   32.7017    8.4950 H         1 UNK         0.0813 
    118 H118       30.6193   33.0886    7.8989 H         1 UNK         0.0813 
    119 H119       31.9764   34.1595    7.5440 H         1 UNK         0.0813 
    120 H120       33.4368   33.7969    4.8608 H         1 UNK         0.3038 
    121 H121       36.0652   32.9558    5.7158 H         1 UNK         0.0769 
    122 H122       35.6300   35.2469    4.8565 H         1 UNK         0.0811 
    123 H123       35.1646   34.5964    3.2835 H         1 UNK         0.0811 
    124 H124       36.8200   34.4366    3.8528 H         1 UNK         0.0811 
    125 H125       33.8174   31.8063    3.2563 H         1 UNK         0.3204 
    126 H126       35.9009   30.1662    1.8945 H         1 UNK         0.0748 
    127 H127       34.0772   29.7759    0.2284 H         1 UNK         0.0771 
    128 H128       32.9880   30.7827    1.1742 H         1 UNK         0.0771 
    129 H129       34.4140   31.4900    0.4193 H         1 UNK         0.0771 
    130 H130       32.9896   29.9930    3.9159 H         1 UNK         0.2980 
    131 H131       32.4581   27.2765    3.7918 H         1 UNK         0.0545 
    132 H132       32.9231   25.4321    5.1883 H         1 UNK         0.3459 
    133 H133       34.3947   25.3923    6.1246 H         1 UNK         0.3459 
    134 H134       31.1744   29.3242    4.9509 H         1 UNK         0.0616 
    135 H135       32.0166   28.8274    6.3855 H         1 UNK         0.0616 
    136 H136       29.7654   27.7860    3.4268 H         1 UNK         0.0634 
    137 H137       28.7796   28.5944    4.6243 H         1 UNK         0.0634 
@<TRIPOS>BOND
     1    1    2 1    
     2    1   72 1    
     3    1   73 1    
     4    1   74 1    
     5    2    3 2    
     6    2    4 am   BACKBONE|DICT|INTERRES
     7    4    5 1    
     8    4   75 1    
     9    5    6 1    
    10    5   35 1    
    11    5   76 1    
    12    6    7 1    
    13    6   77 1    
    14    6   78 1    
    15    7    8 1    
    16    8    9 1    
    17    8   79 1    
    18    8   80 1    
    19    9   10 ar   
    20    9   14 ar   
    21   10   11 ar   
    22   10   81 1    
    23   11   12 ar   
    24   11   71 1    
    25   12   13 ar   
    26   12   82 1    
    27   13   14 ar   
    28   13   15 1    
    29   14   83 1    
    30   15   16 1    
    31   15   84 1    
    32   15   85 1    
    33   16   17 1    
    34   17   18 1    
    35   17   86 1    
    36   17   87 1    
    37   18   19 1    
    38   18   37 1    
    39   18   88 1    
    40   19   20 am   BACKBONE|DICT|INTERRES
    41   19   89 1    
    42   20   21 2    
    43   20   22 1    
    44   22   23 1    
    45   22   24 1    
    46   22   90 1    
    47   23   91 1    
    48   23   92 1    
    49   23   93 1    
    50   24   25 am   BACKBONE|DICT|INTERRES
    51   24   94 1    
    52   25   26 2    
    53   25   27 1    
    54   27   28 1    
    55   27   29 1    
    56   27   95 1    
    57   28   96 1    
    58   28   97 1    
    59   28   98 1    
    60   29   30 am   BACKBONE|DICT|INTERRES
    61   29   99 1    
    62   30   31 2    
    63   30   32 1    
    64   32   33 1    
    65   32   34 1    
    66   32  100 1    
    67   33  101 1    
    68   33  102 1    
    69   33  103 1    
    70   34   35 am   BACKBONE|DICT|INTERRES
    71   34  104 1    
    72   35   36 2    
    73   37   38 2    
    74   37   39 am   BACKBONE|DICT|INTERRES
    75   39   40 1    
    76   39  105 1    
    77   40   41 1    
    78   40   42 1    
    79   40  106 1    
    80   41  107 1    
    81   41  108 1    
    82   41  109 1    
    83   42   43 2    
    84   42   44 am   BACKBONE|DICT|INTERRES
    85   44   45 1    
    86   44  110 1    
    87   45   46 1    
    88   45   47 1    
    89   45  111 1    
    90   46  112 1    
    91   46  113 1    
    92   46  114 1    
    93   47   48 2    
    94   47   49 am   BACKBONE|DICT|INTERRES
    95   49   50 1    
    96   49  115 1    
    97   50   51 1    
    98   50   52 1    
    99   50  116 1    
   100   51  117 1    
   101   51  118 1    
   102   51  119 1    
   103   52   53 2    
   104   52   54 am   BACKBONE|DICT|INTERRES
   105   54   55 1    
   106   54  120 1    
   107   55   56 1    
   108   55   57 1    
   109   55  121 1    
   110   56  122 1    
   111   56  123 1    
   112   56  124 1    
   113   57   58 2    
   114   57   59 am   BACKBONE|DICT|INTERRES
   115   59   60 1    
   116   59  125 1    
   117   60   61 1    
   118   60   62 1    
   119   60  126 1    
   120   61  127 1    
   121   61  128 1    
   122   61  129 1    
   123   62   63 2    
   124   62   64 am   BACKBONE|DICT|INTERRES
   125   64   65 1    
   126   64  130 1    
   127   65   66 1    
   128   65   69 1    
   129   65  131 1    
   130   66   67 am   BACKBONE|DICT|INTERRES
   131   66   68 2    
   132   67  132 1    
   133   67  133 1    
   134   69   70 1    
   135   69  134 1    
   136   69  135 1    
   137   70   71 1    
   138   71  136 1    
   139   71  137 1    
@<TRIPOS>SUBSTRUCTURE
     1 UNK         1 GROUP             0       ****    0 ROOT    
