@<TRIPOS>MOLECULE
3R136
137   139    1
SMALL
USER_CHARGES


@<TRIPOS>ATOM
      1 CA         31.8665   20.9773   -2.2265 C.3       0 UNK        -0.1979 
      2 C          31.3363   22.3091   -1.7162 C.2       0 UNK         0.4864 
      3 O          31.8996   23.3551   -2.0398 O.2       0 UNK        -0.5359 
      4 N          30.2511   22.2792   -0.9295 N.am      1 UNK        -0.4318 
      5 CA         29.6111   23.4596   -0.3300 C.3       1 UNK         0.0824 
      6 C6         28.9316   23.1023    1.0198 C.3       12 UNK        -0.0944 
      7 S7         29.0203   24.4863    2.2006 S.3       12 UNK        -0.2672 
      8 C8         29.0597   23.6251    3.8020 C.3       12 UNK         0.0333 
      9 C9         29.2227   24.6431    4.9179 C.ar      12 UNK        -0.0807 
     10 C10        30.4968   24.9643    5.3927 C.ar      12 UNK        -0.0894 
     11 C11        30.6673   25.9754    6.3431 C.ar      12 UNK        -0.0804 
     12 C12        29.5495   26.6726    6.8131 C.ar      12 UNK        -0.0824 
     13 C13        28.2674   26.3500    6.3536 C.ar      12 UNK        -0.0762 
     14 C14        28.1076   25.3121    5.4305 C.ar      12 UNK        -0.0782 
     15 C15        27.0601   27.1462    6.8291 C.3       12 UNK         0.0230 
     16 S16        26.8349   28.6694    5.8495 S.3       12 UNK        -0.2608 
     17 C17        25.9929   28.0676    4.3437 C.3       12 UNK        -0.0989 
     18 CA         26.9659   27.6096    3.2184 C.3       5 UNK         0.0716 
     19 N          26.4895   26.4305    2.4887 N.am      5 UNK        -0.4135 
     20 C          25.3547   26.3274    1.7874 C.2       4 UNK         0.5031 
     21 O          24.5045   27.2155    1.7109 O.2       4 UNK        -0.5229 
     22 CA         25.1735   25.0080    1.0265 C.3       4 UNK         0.0329 
     23 CB         23.9863   24.1778    1.5544 C.3       4 UNK        -0.2001 
     24 N          25.1272   25.2539   -0.4172 N.am      4 UNK        -0.4303 
     25 C          24.1083   25.6791   -1.1813 C.2       3 UNK         0.5044 
     26 O          22.9545   25.8387   -0.7814 O.2       3 UNK        -0.5152 
     27 CA         24.4171   25.9887   -2.6624 C.3       3 UNK         0.0319 
     28 CB         24.1901   27.4810   -2.9612 C.3       3 UNK        -0.2001 
     29 N          25.7742   25.6306   -3.0869 N.am      3 UNK        -0.4354 
     30 C          26.2324   24.3850   -3.2707 C.2       2 UNK         0.4964 
     31 O          25.5447   23.3730   -3.1327 O.2       2 UNK        -0.5047 
     32 CA         27.7182   24.2359   -3.6465 C.3       2 UNK         0.0288 
     33 CB         28.3657   25.5314   -4.1891 C.3       2 UNK        -0.2113 
     34 N          28.5129   23.6948   -2.5375 N.am      2 UNK        -0.4145 
     35 C          28.6495   24.1963   -1.2978 C.2       1 UNK         0.5006 
     36 O          28.0498   25.2004   -0.9028 O.2       1 UNK        -0.5103 
     37 C          27.4692   28.7316    2.2815 C.2       5 UNK         0.5055 
     38 O          27.6602   29.8636    2.7251 O.2       5 UNK        -0.5220 
     39 N          27.7596   28.3869    1.0157 N.am      6 UNK        -0.4450 
     40 CA         28.4794   29.2440    0.0690 C.3       6 UNK         0.0367 
     41 CB         28.2705   28.7137   -1.3578 C.3       6 UNK        -0.1929 
     42 C          29.9814   29.3217    0.3997 C.2       6 UNK         0.5070 
     43 O          30.6215   30.3296    0.1012 O.2       6 UNK        -0.5237 
     44 N          30.5090   28.2676    1.0407 N.am      7 UNK        -0.4739 
     45 CA         31.8923   28.1580    1.5101 C.3       7 UNK         0.0276 
     46 CB         32.1669   26.6953    1.8967 C.3       7 UNK        -0.1927 
     47 C          32.2314   29.0894    2.6881 C.2       7 UNK         0.5013 
     48 O          33.4150   29.2732    2.9784 O.2       7 UNK        -0.5193 
     49 N          31.2115   29.6667    3.3443 N.am      8 UNK        -0.4253 
     50 CA         31.3203   30.5251    4.5310 C.3       8 UNK         0.0242 
     51 CB         29.9148   30.9217    5.0015 C.3       8 UNK        -0.2000 
     52 C          32.2010   31.7748    4.3565 C.2       8 UNK         0.4948 
     53 O          32.6951   32.2992    5.3539 O.2       8 UNK        -0.5275 
     54 N          32.4362   32.1985    3.1065 N.am      9 UNK        -0.4246 
     55 CA         33.4330   33.2093    2.7442 C.3       9 UNK         0.0261 
     56 CB         33.3152   33.5155    1.2425 C.3       9 UNK        -0.1959 
     57 C          34.8793   32.8041    3.1007 C.2       9 UNK         0.5033 
     58 O          35.7080   33.6906    3.3137 O.2       9 UNK        -0.5390 
     59 N          35.1535   31.4929    3.1670 N.am      10 UNK        -0.4215 
     60 CA         36.4273   30.9196    3.5916 C.3       10 UNK         0.0240 
     61 CB         36.8669   29.8398    2.5872 C.3       10 UNK        -0.1982 
     62 C          36.3219   30.3389    5.0097 C.2       10 UNK         0.4970 
     63 O          37.1394   30.6970    5.8585 O.2       10 UNK        -0.4916 
     64 N          35.3481   29.4454    5.2423 N.am      11 UNK        -0.4279 
     65 CA         35.2040   28.7011    6.5084 C.3       11 UNK         0.1003 
     66 C          34.4608   29.4449    7.6553 C.2       11 UNK         0.5709 
     67 N          33.8945   30.6253    7.4438 N.am      11 UNK        -0.7358 
     68 O          34.4165   28.9462    8.7776 O.2       11 UNK        -0.4999 
     69 C69        34.6776   27.2579    6.2845 C.3       12 UNK        -0.0954 
     70 S70        33.0153   27.1683    5.5442 S.3       12 UNK        -0.2268 
     71 C71        32.0647   26.3189    6.8379 C.3       12 UNK         0.0203 
     72 H72        31.2706   20.1368   -1.8708 H         1 UNK         0.0888 
     73 H73        32.8929   20.8299   -1.8915 H         1 UNK         0.0888 
     74 H74        31.8582   20.9620   -3.3160 H         1 UNK         0.0888 
     75 H75        29.8280   21.3890   -0.7049 H         1 UNK         0.3017 
     76 H76        30.4105   24.1742   -0.1201 H         1 UNK         0.0873 
     77 H77        27.8940   22.7905    0.8869 H         1 UNK         0.0745 
     78 H78        29.4395   22.2532    1.4804 H         1 UNK         0.0745 
     79 H79        28.1402   23.0534    3.9374 H         1 UNK         0.0705 
     80 H80        29.8830   22.9091    3.8166 H         1 UNK         0.0705 
     81 H81        31.3635   24.4510    4.9985 H         1 UNK         0.1334 
     82 H82        29.6767   27.4763    7.5256 H         1 UNK         0.1417 
     83 H83        27.1198   25.0678    5.0642 H         1 UNK         0.1562 
     84 H84        27.1977   27.4223    7.8756 H         1 UNK         0.0748 
     85 H85        26.1541   26.5392    6.7948 H         1 UNK         0.0748 
     86 H86        25.3210   28.8467    3.9789 H         1 UNK         0.0940 
     87 H87        25.3395   27.2461    4.6411 H         1 UNK         0.0940 
     88 H88        27.8848   27.2702    3.6929 H         1 UNK         0.0703 
     89 H89        27.1421   25.6549    2.4629 H         1 UNK         0.3081 
     90 H90        26.0671   24.4012    1.1759 H         1 UNK         0.0719 
     91 H91        23.0548   24.7444    1.5523 H         1 UNK         0.0809 
     92 H92        23.8352   23.2764    0.9606 H         1 UNK         0.0809 
     93 H93        24.1647   23.8642    2.5835 H         1 UNK         0.0809 
     94 H94        26.0358   25.2016   -0.8677 H         1 UNK         0.2990 
     95 H95        23.7123   25.4101   -3.2632 H         1 UNK         0.0690 
     96 H96        24.3489   27.7050   -4.0163 H         1 UNK         0.0788 
     97 H97        24.8572   28.1154   -2.3766 H         1 UNK         0.0788 
     98 H98        23.1680   27.7773   -2.7211 H         1 UNK         0.0788 
     99 H99        26.4261   26.3926   -3.2047 H         1 UNK         0.2993 
    100 H100       27.7520   23.4940   -4.4461 H         1 UNK         0.0949 
    101 H101       27.8020   25.9321   -5.0329 H         1 UNK         0.0767 
    102 H102       28.4357   26.3124   -3.4324 H         1 UNK         0.0767 
    103 H103       29.3768   25.3371   -4.5475 H         1 UNK         0.0767 
    104 H104       29.0201   22.8464   -2.7435 H         1 UNK         0.3013 
    105 H105       27.5712   27.4410    0.7145 H         1 UNK         0.3121 
    106 H106       28.0677   30.2541    0.1264 H         1 UNK         0.0774 
    107 H107       28.7070   27.7231   -1.4852 H         1 UNK         0.0815 
    108 H108       28.7411   29.3719   -2.0893 H         1 UNK         0.0815 
    109 H109       27.2121   28.6525   -1.6097 H         1 UNK         0.0815 
    110 H110       29.9099   27.4777    1.2307 H         1 UNK         0.2987 
    111 H111       32.5546   28.4288    0.6850 H         1 UNK         0.0949 
    112 H112       31.5306   26.3702    2.7213 H         1 UNK         0.0806 
    113 H113       32.0003   26.0208    1.0567 H         1 UNK         0.0806 
    114 H114       33.2015   26.5634    2.2169 H         1 UNK         0.0806 
    115 H115       30.2752   29.4754    3.0178 H         1 UNK         0.3010 
    116 H116       31.7809   29.9242    5.3174 H         1 UNK         0.0829 
    117 H117       29.3210   30.0407    5.2403 H         1 UNK         0.0813 
    118 H118       29.9592   31.5341    5.9032 H         1 UNK         0.0813 
    119 H119       29.3794   31.4928    4.2420 H         1 UNK         0.0813 
    120 H120       31.9793   31.7142    2.3462 H         1 UNK         0.3038 
    121 H121       33.2014   34.1193    3.3016 H         1 UNK         0.0769 
    122 H122       33.5114   32.6318    0.6336 H         1 UNK         0.0811 
    123 H123       34.0302   34.2833    0.9434 H         1 UNK         0.0811 
    124 H124       32.3211   33.8843    0.9887 H         1 UNK         0.0811 
    125 H125       34.4042   30.8244    2.9984 H         1 UNK         0.3204 
    126 H126       37.2013   31.6900    3.6069 H         1 UNK         0.0748 
    127 H127       37.8129   29.3881    2.8888 H         1 UNK         0.0771 
    128 H128       36.1340   29.0366    2.5003 H         1 UNK         0.0771 
    129 H129       37.0132   30.2640    1.5937 H         1 UNK         0.0771 
    130 H130       34.6881   29.2130    4.5065 H         1 UNK         0.2980 
    131 H131       36.2126   28.5672    6.9042 H         1 UNK         0.0545 
    132 H132       33.4324   31.0834    8.2122 H         1 UNK         0.3459 
    133 H133       33.8821   31.0614    6.5314 H         1 UNK         0.3459 
    134 H134       35.3581   26.7266    5.6177 H         1 UNK         0.0616 
    135 H135       34.6947   26.6962    7.2201 H         1 UNK         0.0616 
    136 H136       32.5803   25.4019    7.1267 H         1 UNK         0.0634 
    137 H137       32.0221   26.9508    7.7265 H         1 UNK         0.0634 
@<TRIPOS>BOND
     1    1    2 1    
     2    1   72 1    
     3    1   73 1    
     4    1   74 1    
     5    2    3 2    
     6    2    4 am   BACKBONE|DICT|INTERRES
     7    4    5 1    
     8    4   75 1    
     9    5    6 1    
    10    5   35 1    
    11    5   76 1    
    12    6    7 1    
    13    6   77 1    
    14    6   78 1    
    15    7    8 1    
    16    8    9 1    
    17    8   79 1    
    18    8   80 1    
    19    9   10 ar   
    20    9   14 ar   
    21   10   11 ar   
    22   10   81 1    
    23   11   12 ar   
    24   11   71 1    
    25   12   13 ar   
    26   12   82 1    
    27   13   14 ar   
    28   13   15 1    
    29   14   83 1    
    30   15   16 1    
    31   15   84 1    
    32   15   85 1    
    33   16   17 1    
    34   17   18 1    
    35   17   86 1    
    36   17   87 1    
    37   18   19 1    
    38   18   37 1    
    39   18   88 1    
    40   19   20 am   BACKBONE|DICT|INTERRES
    41   19   89 1    
    42   20   21 2    
    43   20   22 1    
    44   22   23 1    
    45   22   24 1    
    46   22   90 1    
    47   23   91 1    
    48   23   92 1    
    49   23   93 1    
    50   24   25 am   BACKBONE|DICT|INTERRES
    51   24   94 1    
    52   25   26 2    
    53   25   27 1    
    54   27   28 1    
    55   27   29 1    
    56   27   95 1    
    57   28   96 1    
    58   28   97 1    
    59   28   98 1    
    60   29   30 am   BACKBONE|DICT|INTERRES
    61   29   99 1    
    62   30   31 2    
    63   30   32 1    
    64   32   33 1    
    65   32   34 1    
    66   32  100 1    
    67   33  101 1    
    68   33  102 1    
    69   33  103 1    
    70   34   35 am   BACKBONE|DICT|INTERRES
    71   34  104 1    
    72   35   36 2    
    73   37   38 2    
    74   37   39 am   BACKBONE|DICT|INTERRES
    75   39   40 1    
    76   39  105 1    
    77   40   41 1    
    78   40   42 1    
    79   40  106 1    
    80   41  107 1    
    81   41  108 1    
    82   41  109 1    
    83   42   43 2    
    84   42   44 am   BACKBONE|DICT|INTERRES
    85   44   45 1    
    86   44  110 1    
    87   45   46 1    
    88   45   47 1    
    89   45  111 1    
    90   46  112 1    
    91   46  113 1    
    92   46  114 1    
    93   47   48 2    
    94   47   49 am   BACKBONE|DICT|INTERRES
    95   49   50 1    
    96   49  115 1    
    97   50   51 1    
    98   50   52 1    
    99   50  116 1    
   100   51  117 1    
   101   51  118 1    
   102   51  119 1    
   103   52   53 2    
   104   52   54 am   BACKBONE|DICT|INTERRES
   105   54   55 1    
   106   54  120 1    
   107   55   56 1    
   108   55   57 1    
   109   55  121 1    
   110   56  122 1    
   111   56  123 1    
   112   56  124 1    
   113   57   58 2    
   114   57   59 am   BACKBONE|DICT|INTERRES
   115   59   60 1    
   116   59  125 1    
   117   60   61 1    
   118   60   62 1    
   119   60  126 1    
   120   61  127 1    
   121   61  128 1    
   122   61  129 1    
   123   62   63 2    
   124   62   64 am   BACKBONE|DICT|INTERRES
   125   64   65 1    
   126   64  130 1    
   127   65   66 1    
   128   65   69 1    
   129   65  131 1    
   130   66   67 am   BACKBONE|DICT|INTERRES
   131   66   68 2    
   132   67  132 1    
   133   67  133 1    
   134   69   70 1    
   135   69  134 1    
   136   69  135 1    
   137   70   71 1    
   138   71  136 1    
   139   71  137 1    
@<TRIPOS>SUBSTRUCTURE
     1 UNK         1 GROUP             0       ****    0 ROOT    
