@<TRIPOS>MOLECULE
3R136
137   139    1
SMALL
USER_CHARGES


@<TRIPOS>ATOM
      1 CA         29.6817   21.1349    5.5817 C.3       0 UNK        -0.1979 
      2 C          30.8855   21.6262    4.7814 C.2       0 UNK         0.4864 
      3 O          32.0176   21.4078    5.2076 O.2       0 UNK        -0.5359 
      4 N          30.7027   22.2756    3.6229 N.am      1 UNK        -0.4318 
      5 CA         29.4255   22.5504    2.9581 C.3       1 UNK         0.0824 
      6 C6         29.5844   22.7346    1.4288 C.3       12 UNK        -0.0944 
      7 S7         30.5381   21.3725    0.6644 S.3       12 UNK        -0.2672 
      8 C8         31.6512   22.2195   -0.5080 C.3       12 UNK         0.0333 
      9 C9         32.3864   23.4099    0.0968 C.ar      12 UNK        -0.0807 
     10 C10        33.3436   23.2331    1.1020 C.ar      12 UNK        -0.0894 
     11 C11        34.0063   24.3371    1.6516 C.ar      12 UNK        -0.0804 
     12 C12        33.7101   25.6199    1.1778 C.ar      12 UNK        -0.0824 
     13 C13        32.7574   25.8102    0.1741 C.ar      12 UNK        -0.0762 
     14 C14        32.1007   24.6990   -0.3609 C.ar      12 UNK        -0.0782 
     15 C15        32.4057   27.2229   -0.2740 C.3       12 UNK         0.0230 
     16 S16        32.2047   27.3998   -2.0796 S.3       12 UNK        -0.2608 
     17 C17        31.3442   29.0074   -2.1305 C.3       12 UNK        -0.0989 
     18 CA         29.8300   28.8979   -2.4621 C.3       5 UNK         0.0716 
     19 N          29.1349   27.8441   -1.7134 N.am      5 UNK        -0.4135 
     20 C          28.0426   27.2022   -2.1497 C.2       4 UNK         0.5031 
     21 O          27.5394   27.3730   -3.2610 O.2       4 UNK        -0.5229 
     22 CA         27.3884   26.2040   -1.1768 C.3       4 UNK         0.0329 
     23 CB         28.0201   24.8096   -1.3113 C.3       4 UNK        -0.2001 
     24 N          27.4336   26.6330    0.2252 N.am      4 UNK        -0.4303 
     25 C          26.7891   27.7048    0.7095 C.2       3 UNK         0.5044 
     26 O          26.1061   28.4587    0.0145 O.2       3 UNK        -0.5152 
     27 CA         26.9506   27.9909    2.2151 C.3       3 UNK         0.0319 
     28 CB         25.8166   28.8821    2.7688 C.3       3 UNK        -0.2001 
     29 N          27.1140   26.7905    3.0499 N.am      3 UNK        -0.4354 
     30 C          26.2177   25.8108    3.2363 C.2       2 UNK         0.4964 
     31 O          25.1592   25.7096    2.6142 O.2       2 UNK        -0.5047 
     32 CA         26.5815   24.7610    4.2987 C.3       2 UNK         0.0288 
     33 CB         25.3338   24.1127    4.9275 C.3       2 UNK        -0.2113 
     34 N          27.4167   23.7125    3.7196 N.am      2 UNK        -0.4145 
     35 C          28.7452   23.7839    3.5806 C.2       1 UNK         0.5006 
     36 O          29.4199   24.7656    3.9142 O.2       1 UNK        -0.5103 
     37 C          29.1215   30.2444   -2.2186 C.2       5 UNK         0.5055 
     38 O          28.7031   30.9063   -3.1692 O.2       5 UNK        -0.5220 
     39 N          28.9947   30.5998   -0.9346 N.am      6 UNK        -0.4450 
     40 CA         28.3614   31.7888   -0.3768 C.3       6 UNK         0.0367 
     41 CB         29.1490   33.0600   -0.7514 C.3       6 UNK        -0.1929 
     42 C          28.3572   31.5976    1.1440 C.2       6 UNK         0.5070 
     43 O          29.1742   30.8258    1.6542 O.2       6 UNK        -0.5237 
     44 N          27.4802   32.3186    1.8539 N.am      7 UNK        -0.4739 
     45 CA         27.3472   32.2529    3.3173 C.3       7 UNK         0.0276 
     46 CB         26.1375   33.0881    3.7641 C.3       7 UNK        -0.1927 
     47 C          28.6143   32.6748    4.0803 C.2       7 UNK         0.5013 
     48 O          28.9261   32.0838    5.1137 O.2       7 UNK        -0.5193 
     49 N          29.3486   33.6494    3.5283 N.am      8 UNK        -0.4253 
     50 CA         30.6392   34.1151    4.0434 C.3       8 UNK         0.0242 
     51 CB         30.9695   35.4716    3.3983 C.3       8 UNK        -0.2000 
     52 C          31.7947   33.1191    3.8185 C.2       8 UNK         0.4948 
     53 O          32.8435   33.2762    4.4445 O.2       8 UNK        -0.5275 
     54 N          31.5986   32.1352    2.9303 N.am      9 UNK        -0.4246 
     55 CA         32.5927   31.1382    2.5311 C.3       9 UNK         0.0261 
     56 CB         32.7560   31.2158    1.0026 C.3       9 UNK        -0.1959 
     57 C          32.2127   29.7148    2.9799 C.2       9 UNK         0.5033 
     58 O          32.8896   28.7684    2.5783 O.2       9 UNK        -0.5390 
     59 N          31.1441   29.5714    3.7777 N.am      10 UNK        -0.4215 
     60 CA         30.6321   28.2969    4.2840 C.3       10 UNK         0.0240 
     61 CB         29.3321   28.5598    5.0638 C.3       10 UNK        -0.1982 
     62 C          31.6474   27.5785    5.1884 C.2       10 UNK         0.4970 
     63 O          32.2258   28.2178    6.0711 O.2       10 UNK        -0.4916 
     64 N          31.8009   26.2668    4.9817 N.am      11 UNK        -0.4279 
     65 CA         32.5878   25.3800    5.8532 C.3       11 UNK         0.1003 
     66 C          31.7087   24.6379    6.8995 C.2       11 UNK         0.5709 
     67 N          30.3897   24.5831    6.7456 N.am      11 UNK        -0.7358 
     68 O          32.2316   24.1301    7.8886 O.2       11 UNK        -0.4999 
     69 C69        33.4572   24.3910    5.0352 C.3       12 UNK        -0.0954 
     70 S70        34.8333   25.2217    4.1802 S.3       12 UNK        -0.2268 
     71 C71        35.0686   24.1418    2.7284 C.3       12 UNK         0.0203 
     72 H72        29.1396   20.3644    5.0345 H         1 UNK         0.0888 
     73 H73        30.0071   20.7014    6.5272 H         1 UNK         0.0888 
     74 H74        29.0003   21.9516    5.8158 H         1 UNK         0.0888 
     75 H75        31.5138   22.5963    3.1158 H         1 UNK         0.3017 
     76 H76        28.7760   21.6858    3.1062 H         1 UNK         0.0873 
     77 H77        28.6042   22.7608    0.9504 H         1 UNK         0.0745 
     78 H78        30.0494   23.6954    1.2104 H         1 UNK         0.0745 
     79 H79        32.3824   21.5002   -0.8790 H         1 UNK         0.0705 
     80 H80        31.0650   22.5285   -1.3749 H         1 UNK         0.0705 
     81 H81        33.5699   22.2351    1.4524 H         1 UNK         0.1334 
     82 H82        34.2139   26.4768    1.6054 H         1 UNK         0.1417 
     83 H83        31.3611   24.8401   -1.1361 H         1 UNK         0.1562 
     84 H84        33.1753   27.9261    0.0477 H         1 UNK         0.0748 
     85 H85        31.4868   27.5163    0.2346 H         1 UNK         0.0748 
     86 H86        31.8390   29.6276   -2.8805 H         1 UNK         0.0940 
     87 H87        31.5105   29.5168   -1.1818 H         1 UNK         0.0940 
     88 H88        29.7512   28.6698   -3.5277 H         1 UNK         0.0703 
     89 H89        29.4860   27.6233   -0.7958 H         1 UNK         0.3081 
     90 H90        26.3369   26.1226   -1.4613 H         1 UNK         0.0719 
     91 H91        29.0467   24.7918   -0.9484 H         1 UNK         0.0809 
     92 H92        27.4512   24.0656   -0.7541 H         1 UNK         0.0809 
     93 H93        28.0359   24.4851   -2.3529 H         1 UNK         0.0809 
     94 H94        27.9538   26.0566    0.8693 H         1 UNK         0.2990 
     95 H95        27.8815   28.5510    2.3017 H         1 UNK         0.0690 
     96 H96        25.9664   29.1074    3.8244 H         1 UNK         0.0788 
     97 H97        24.8411   28.4062    2.6649 H         1 UNK         0.0788 
     98 H98        25.7649   29.8318    2.2355 H         1 UNK         0.0788 
     99 H99        27.9851   26.7225    3.5585 H         1 UNK         0.2993 
    100 H100       27.1282   25.2623    5.1012 H         1 UNK         0.0949 
    101 H101       25.6069   23.4262    5.7292 H         1 UNK         0.0767 
    102 H102       24.6779   24.8697    5.3599 H         1 UNK         0.0767 
    103 H103       24.7491   23.5550    4.1945 H         1 UNK         0.0767 
    104 H104       26.9287   22.8948    3.3822 H         1 UNK         0.3013 
    105 H105       29.3554   29.9957   -0.2061 H         1 UNK         0.3121 
    106 H106       27.3335   31.8512   -0.7392 H         1 UNK         0.0774 
    107 H107       28.7025   33.9469   -0.3005 H         1 UNK         0.0815 
    108 H108       30.1847   33.0070   -0.4129 H         1 UNK         0.0815 
    109 H109       29.1592   33.2240   -1.8287 H         1 UNK         0.0815 
    110 H110       26.8468   32.9374    1.3668 H         1 UNK         0.2987 
    111 H111       27.1608   31.2133    3.5881 H         1 UNK         0.0949 
    112 H112       26.2482   34.1389    3.4940 H         1 UNK         0.0806 
    113 H113       25.2145   32.7201    3.3157 H         1 UNK         0.0806 
    114 H114       26.0094   33.0413    4.8467 H         1 UNK         0.0806 
    115 H115       29.0128   34.0762    2.6770 H         1 UNK         0.3010 
    116 H116       30.5442   34.2623    5.1216 H         1 UNK         0.0829 
    117 H117       30.1963   36.2109    3.6085 H         1 UNK         0.0813 
    118 H118       31.9084   35.8703    3.7853 H         1 UNK         0.0813 
    119 H119       31.0729   35.3899    2.3154 H         1 UNK         0.0813 
    120 H120       30.6887   32.0401    2.4936 H         1 UNK         0.3038 
    121 H121       33.5605   31.3567    2.9867 H         1 UNK         0.0769 
    122 H122       31.8073   31.0451    0.4952 H         1 UNK         0.0811 
    123 H123       33.4685   30.4755    0.6366 H         1 UNK         0.0811 
    124 H124       33.1245   32.1949    0.6961 H         1 UNK         0.0811 
    125 H125       30.6570   30.4038    4.0772 H         1 UNK         0.3204 
    126 H126       30.4077   27.6652    3.4218 H         1 UNK         0.0748 
    127 H127       28.8791   27.6270    5.4016 H         1 UNK         0.0771 
    128 H128       29.5152   29.1690    5.9503 H         1 UNK         0.0771 
    129 H129       28.5964   29.0868    4.4576 H         1 UNK         0.0771 
    130 H130       31.2410   25.8057    4.2748 H         1 UNK         0.2980 
    131 H131       33.2762   25.9835    6.4479 H         1 UNK         0.0545 
    132 H132       29.9586   24.9424    5.9051 H         1 UNK         0.3459 
    133 H133       29.8329   24.1260    7.4490 H         1 UNK         0.3459 
    134 H134       32.8448   23.8716    4.2997 H         1 UNK         0.0616 
    135 H135       33.8922   23.6222    5.6767 H         1 UNK         0.0616 
    136 H136       35.1032   23.1035    3.0621 H         1 UNK         0.0634 
    137 H137       36.0443   24.3579    2.2916 H         1 UNK         0.0634 
@<TRIPOS>BOND
     1    1    2 1    
     2    1   72 1    
     3    1   73 1    
     4    1   74 1    
     5    2    3 2    
     6    2    4 am   BACKBONE|DICT|INTERRES
     7    4    5 1    
     8    4   75 1    
     9    5    6 1    
    10    5   35 1    
    11    5   76 1    
    12    6    7 1    
    13    6   77 1    
    14    6   78 1    
    15    7    8 1    
    16    8    9 1    
    17    8   79 1    
    18    8   80 1    
    19    9   10 ar   
    20    9   14 ar   
    21   10   11 ar   
    22   10   81 1    
    23   11   12 ar   
    24   11   71 1    
    25   12   13 ar   
    26   12   82 1    
    27   13   14 ar   
    28   13   15 1    
    29   14   83 1    
    30   15   16 1    
    31   15   84 1    
    32   15   85 1    
    33   16   17 1    
    34   17   18 1    
    35   17   86 1    
    36   17   87 1    
    37   18   19 1    
    38   18   37 1    
    39   18   88 1    
    40   19   20 am   BACKBONE|DICT|INTERRES
    41   19   89 1    
    42   20   21 2    
    43   20   22 1    
    44   22   23 1    
    45   22   24 1    
    46   22   90 1    
    47   23   91 1    
    48   23   92 1    
    49   23   93 1    
    50   24   25 am   BACKBONE|DICT|INTERRES
    51   24   94 1    
    52   25   26 2    
    53   25   27 1    
    54   27   28 1    
    55   27   29 1    
    56   27   95 1    
    57   28   96 1    
    58   28   97 1    
    59   28   98 1    
    60   29   30 am   BACKBONE|DICT|INTERRES
    61   29   99 1    
    62   30   31 2    
    63   30   32 1    
    64   32   33 1    
    65   32   34 1    
    66   32  100 1    
    67   33  101 1    
    68   33  102 1    
    69   33  103 1    
    70   34   35 am   BACKBONE|DICT|INTERRES
    71   34  104 1    
    72   35   36 2    
    73   37   38 2    
    74   37   39 am   BACKBONE|DICT|INTERRES
    75   39   40 1    
    76   39  105 1    
    77   40   41 1    
    78   40   42 1    
    79   40  106 1    
    80   41  107 1    
    81   41  108 1    
    82   41  109 1    
    83   42   43 2    
    84   42   44 am   BACKBONE|DICT|INTERRES
    85   44   45 1    
    86   44  110 1    
    87   45   46 1    
    88   45   47 1    
    89   45  111 1    
    90   46  112 1    
    91   46  113 1    
    92   46  114 1    
    93   47   48 2    
    94   47   49 am   BACKBONE|DICT|INTERRES
    95   49   50 1    
    96   49  115 1    
    97   50   51 1    
    98   50   52 1    
    99   50  116 1    
   100   51  117 1    
   101   51  118 1    
   102   51  119 1    
   103   52   53 2    
   104   52   54 am   BACKBONE|DICT|INTERRES
   105   54   55 1    
   106   54  120 1    
   107   55   56 1    
   108   55   57 1    
   109   55  121 1    
   110   56  122 1    
   111   56  123 1    
   112   56  124 1    
   113   57   58 2    
   114   57   59 am   BACKBONE|DICT|INTERRES
   115   59   60 1    
   116   59  125 1    
   117   60   61 1    
   118   60   62 1    
   119   60  126 1    
   120   61  127 1    
   121   61  128 1    
   122   61  129 1    
   123   62   63 2    
   124   62   64 am   BACKBONE|DICT|INTERRES
   125   64   65 1    
   126   64  130 1    
   127   65   66 1    
   128   65   69 1    
   129   65  131 1    
   130   66   67 am   BACKBONE|DICT|INTERRES
   131   66   68 2    
   132   67  132 1    
   133   67  133 1    
   134   69   70 1    
   135   69  134 1    
   136   69  135 1    
   137   70   71 1    
   138   71  136 1    
   139   71  137 1    
@<TRIPOS>SUBSTRUCTURE
     1 UNK         1 GROUP             0       ****    0 ROOT    
