@<TRIPOS>MOLECULE
3R136
137   139    1
SMALL
USER_CHARGES


@<TRIPOS>ATOM
      1 CA         31.2036   26.0709   -5.2921 C.3       0 UNK        -0.1979 
      2 C          30.2288   26.6029   -4.2522 C.2       0 UNK         0.4864 
      3 O          29.4352   27.4936   -4.5572 O.2       0 UNK        -0.5359 
      4 N          30.2807   26.0619   -3.0274 N.am      1 UNK        -0.4318 
      5 CA         29.4195   26.4432   -1.9006 C.3       1 UNK         0.0824 
      6 C6         30.0464   26.0342   -0.5441 C.3       12 UNK        -0.0944 
      7 S7         30.3985   24.2473   -0.3834 S.3       12 UNK        -0.2672 
      8 C8         29.4115   23.8055    1.0902 C.3       12 UNK         0.0333 
      9 C9         30.0144   24.1564    2.4543 C.ar      12 UNK        -0.0807 
     10 C10        31.2001   24.8892    2.6088 C.ar      12 UNK        -0.0894 
     11 C11        31.7009   25.1823    3.8816 C.ar      12 UNK        -0.0804 
     12 C12        31.0021   24.7522    5.0127 C.ar      12 UNK        -0.0824 
     13 C13        29.8102   24.0341    4.8792 C.ar      12 UNK        -0.0762 
     14 C14        29.3354   23.7256    3.5995 C.ar      12 UNK        -0.0782 
     15 C15        29.0245   23.6148    6.1165 C.3       12 UNK         0.0230 
     16 S16        27.3294   24.2941    6.1355 S.3       12 UNK        -0.2608 
     17 C17        27.6192   26.0989    6.1736 C.3       12 UNK        -0.0989 
     18 CA         27.7108   26.7145    4.7550 C.3       5 UNK         0.0716 
     19 N          26.5471   26.4092    3.9194 N.am      5 UNK        -0.4135 
     20 C          26.5551   26.5265    2.5881 C.2       4 UNK         0.5031 
     21 O          27.5415   26.8875    1.9451 O.2       4 UNK        -0.5229 
     22 CA         25.2625   26.1732    1.8452 C.3       4 UNK         0.0329 
     23 CB         24.7323   27.3821    1.0564 C.3       4 UNK        -0.2001 
     24 N          25.5443   25.0739    0.9247 N.am      4 UNK        -0.4303 
     25 C          25.4398   23.7770    1.2492 C.2       3 UNK         0.5044 
     26 O          25.0063   23.3920    2.3362 O.2       3 UNK        -0.5152 
     27 CA         25.9289   22.7168    0.2375 C.3       3 UNK         0.0319 
     28 CB         24.9018   21.5794    0.0503 C.3       3 UNK        -0.2001 
     29 N          26.3803   23.2476   -1.0566 N.am      3 UNK        -0.4354 
     30 C          25.6405   23.8288   -2.0135 C.2       2 UNK         0.4964 
     31 O          24.4194   23.9765   -1.9472 O.2       2 UNK        -0.5047 
     32 CA         26.4182   24.3560   -3.2383 C.3       2 UNK         0.0288 
     33 CB         25.5941   25.3512   -4.0835 C.3       2 UNK        -0.2113 
     34 N          27.7249   24.9414   -2.8974 N.am      2 UNK        -0.4145 
     35 C          27.9610   25.9517   -2.0419 C.2       1 UNK         0.5006 
     36 O          27.0816   26.4915   -1.3712 O.2       1 UNK        -0.5103 
     37 C          27.9752   28.2301    4.7979 C.2       5 UNK         0.5055 
     38 O          27.0307   29.0199    4.7349 O.2       5 UNK        -0.5220 
     39 N          29.2641   28.5866    4.8828 N.am      6 UNK        -0.4450 
     40 CA         29.8476   29.9347    4.8316 C.3       6 UNK         0.0367 
     41 CB         29.1686   30.9163    5.8097 C.3       6 UNK        -0.1929 
     42 C          29.9708   30.5263    3.4161 C.2       6 UNK         0.5070 
     43 O          30.6565   31.5383    3.2589 O.2       6 UNK        -0.5237 
     44 N          29.3545   29.8917    2.4080 N.am      7 UNK        -0.4739 
     45 CA         29.3205   30.3727    1.0238 C.3       7 UNK         0.0276 
     46 CB         28.2013   29.6481    0.2595 C.3       7 UNK        -0.1927 
     47 C          30.6577   30.2503    0.2715 C.2       7 UNK         0.5013 
     48 O          30.8253   30.9382   -0.7361 O.2       7 UNK        -0.5193 
     49 N          31.5763   29.3936    0.7474 N.am      8 UNK        -0.4253 
     50 CA         32.9224   29.2536    0.1823 C.3       8 UNK         0.0242 
     51 CB         33.5933   27.9559    0.6698 C.3       8 UNK        -0.2000 
     52 C          33.7912   30.4807    0.5023 C.2       8 UNK         0.4948 
     53 O          34.2161   31.1790   -0.4191 O.2       8 UNK        -0.5275 
     54 N          34.0228   30.7187    1.8004 N.am      9 UNK        -0.4246 
     55 CA         34.8263   31.8146    2.3417 C.3       9 UNK         0.0261 
     56 CB         36.3066   31.6934    1.9079 C.3       9 UNK        -0.1959 
     57 C          34.6776   31.8243    3.8688 C.2       9 UNK         0.5033 
     58 O          35.6369   31.5146    4.5782 O.2       9 UNK        -0.5390 
     59 N          33.4628   32.1171    4.3561 N.am      10 UNK        -0.4215 
     60 CA         33.0505   32.2299    5.7679 C.3       10 UNK         0.0240 
     61 CB         33.8582   33.3095    6.5158 C.3       10 UNK        -0.1982 
     62 C          33.0299   30.9063    6.5582 C.2       10 UNK         0.4970 
     63 O          32.1529   30.7404    7.4059 O.2       10 UNK        -0.4916 
     64 N          33.9495   29.9845    6.2492 N.am      11 UNK        -0.4279 
     65 CA         34.0122   28.5949    6.7384 C.3       11 UNK         0.1003 
     66 C          34.2812   28.4430    8.2676 C.2       11 UNK         0.5709 
     67 N          34.7605   29.4709    8.9592 N.am      11 UNK        -0.7358 
     68 O          34.0920   27.3677    8.8332 O.2       11 UNK        -0.4999 
     69 C69        32.8125   27.7336    6.2390 C.3       12 UNK        -0.0954 
     70 S70        32.6970   27.7089    4.4139 S.3       12 UNK        -0.2268 
     71 C71        33.0033   25.9564    4.0281 C.3       12 UNK         0.0203 
     72 H72        31.8354   26.8785   -5.6610 H         1 UNK         0.0888 
     73 H73        31.8506   25.2936   -4.8854 H         1 UNK         0.0888 
     74 H74        30.6587   25.6510   -6.1374 H         1 UNK         0.0888 
     75 H75        30.9536   25.3343   -2.8276 H         1 UNK         0.3017 
     76 H76        29.3600   27.5340   -1.9028 H         1 UNK         0.0873 
     77 H77        30.9862   26.5683   -0.4180 H         1 UNK         0.0745 
     78 H78        29.4204   26.3652    0.2843 H         1 UNK         0.0745 
     79 H79        29.2421   22.7285    1.0589 H         1 UNK         0.0705 
     80 H80        28.4327   24.2779    1.0088 H         1 UNK         0.0705 
     81 H81        31.7477   25.2343    1.7442 H         1 UNK         0.1334 
     82 H82        31.3829   24.9852    5.9973 H         1 UNK         0.1417 
     83 H83        28.4111   23.1719    3.4987 H         1 UNK         0.1562 
     84 H84        29.5380   23.9193    7.0300 H         1 UNK         0.0748 
     85 H85        28.9673   22.5258    6.1457 H         1 UNK         0.0748 
     86 H86        28.5298   26.2981    6.7423 H         1 UNK         0.0940 
     87 H87        26.8049   26.5602    6.7357 H         1 UNK         0.0940 
     88 H88        28.5738   26.2759    4.2560 H         1 UNK         0.0703 
     89 H89        25.7102   26.1094    4.3966 H         1 UNK         0.3081 
     90 H90        24.4948   25.8762    2.5630 H         1 UNK         0.0719 
     91 H91        25.4639   27.7501    0.3361 H         1 UNK         0.0809 
     92 H92        23.8232   27.1309    0.5100 H         1 UNK         0.0809 
     93 H93        24.4938   28.2086    1.7268 H         1 UNK         0.0809 
     94 H94        25.9678   25.3376    0.0415 H         1 UNK         0.2990 
     95 H95        26.8134   22.2697    0.6920 H         1 UNK         0.0690 
     96 H96        25.2665   20.8246   -0.6463 H         1 UNK         0.0788 
     97 H97        23.9469   21.9494   -0.3237 H         1 UNK         0.0788 
     98 H98        24.7014   21.0741    0.9958 H         1 UNK         0.0788 
     99 H99        27.3761   23.1932   -1.2202 H         1 UNK         0.2993 
    100 H100       26.6218   23.4841   -3.8618 H         1 UNK         0.0949 
    101 H101       25.3059   26.2296   -3.5047 H         1 UNK         0.0767 
    102 H102       26.1563   25.6933   -4.9525 H         1 UNK         0.0767 
    103 H103       24.6778   24.8890   -4.4530 H         1 UNK         0.0767 
    104 H104       28.5210   24.5536   -3.3839 H         1 UNK         0.3013 
    105 H105       29.9500   27.8433    4.9070 H         1 UNK         0.3121 
    106 H106       30.8703   29.8080    5.1747 H         1 UNK         0.0774 
    107 H107       29.7334   31.8454    5.8821 H         1 UNK         0.0815 
    108 H108       28.1617   31.1856    5.4922 H         1 UNK         0.0815 
    109 H109       29.1094   30.4983    6.8142 H         1 UNK         0.0815 
    110 H110       28.8153   29.0601    2.6106 H         1 UNK         0.2987 
    111 H111       29.0710   31.4360    1.0507 H         1 UNK         0.0949 
    112 H112       28.0958   30.0440   -0.7514 H         1 UNK         0.0806 
    113 H113       28.4011   28.5815    0.1684 H         1 UNK         0.0806 
    114 H114       27.2375   29.7651    0.7552 H         1 UNK         0.0806 
    115 H115       31.3566   28.8676    1.5802 H         1 UNK         0.3010 
    116 H116       32.8273   29.1854   -0.9040 H         1 UNK         0.0829 
    117 H117       33.0001   27.0722    0.4316 H         1 UNK         0.0813 
    118 H118       34.5666   27.8257    0.1893 H         1 UNK         0.0813 
    119 H119       33.7678   27.9609    1.7464 H         1 UNK         0.0813 
    120 H120       33.6180   30.0953    2.4856 H         1 UNK         0.3038 
    121 H121       34.4288   32.7594    1.9655 H         1 UNK         0.0769 
    122 H122       36.9172   32.4622    2.3833 H         1 UNK         0.0811 
    123 H123       36.4286   31.8177    0.8324 H         1 UNK         0.0811 
    124 H124       36.7276   30.7256    2.1825 H         1 UNK         0.0811 
    125 H125       32.7070   32.2566    3.6925 H         1 UNK         0.3204 
    126 H126       32.0166   32.5752    5.7310 H         1 UNK         0.0748 
    127 H127       33.4626   33.4629    7.5209 H         1 UNK         0.0771 
    128 H128       34.9087   33.0380    6.6216 H         1 UNK         0.0771 
    129 H129       33.8099   34.2685    6.0000 H         1 UNK         0.0771 
    130 H130       34.6766   30.2636    5.5962 H         1 UNK         0.2980 
    131 H131       34.9089   28.1790    6.2775 H         1 UNK         0.0545 
    132 H132       34.9444   29.3613    9.9439 H         1 UNK         0.3459 
    133 H133       34.9260   30.3565    8.5074 H         1 UNK         0.3459 
    134 H134       31.8731   28.1097    6.6455 H         1 UNK         0.0616 
    135 H135       32.9022   26.7098    6.6021 H         1 UNK         0.0616 
    136 H136       33.6341   25.4980    4.7908 H         1 UNK         0.0634 
    137 H137       33.5757   25.9022    3.1012 H         1 UNK         0.0634 
@<TRIPOS>BOND
     1    1    2 1    
     2    1   72 1    
     3    1   73 1    
     4    1   74 1    
     5    2    3 2    
     6    2    4 am   BACKBONE|DICT|INTERRES
     7    4    5 1    
     8    4   75 1    
     9    5    6 1    
    10    5   35 1    
    11    5   76 1    
    12    6    7 1    
    13    6   77 1    
    14    6   78 1    
    15    7    8 1    
    16    8    9 1    
    17    8   79 1    
    18    8   80 1    
    19    9   10 ar   
    20    9   14 ar   
    21   10   11 ar   
    22   10   81 1    
    23   11   12 ar   
    24   11   71 1    
    25   12   13 ar   
    26   12   82 1    
    27   13   14 ar   
    28   13   15 1    
    29   14   83 1    
    30   15   16 1    
    31   15   84 1    
    32   15   85 1    
    33   16   17 1    
    34   17   18 1    
    35   17   86 1    
    36   17   87 1    
    37   18   19 1    
    38   18   37 1    
    39   18   88 1    
    40   19   20 am   BACKBONE|DICT|INTERRES
    41   19   89 1    
    42   20   21 2    
    43   20   22 1    
    44   22   23 1    
    45   22   24 1    
    46   22   90 1    
    47   23   91 1    
    48   23   92 1    
    49   23   93 1    
    50   24   25 am   BACKBONE|DICT|INTERRES
    51   24   94 1    
    52   25   26 2    
    53   25   27 1    
    54   27   28 1    
    55   27   29 1    
    56   27   95 1    
    57   28   96 1    
    58   28   97 1    
    59   28   98 1    
    60   29   30 am   BACKBONE|DICT|INTERRES
    61   29   99 1    
    62   30   31 2    
    63   30   32 1    
    64   32   33 1    
    65   32   34 1    
    66   32  100 1    
    67   33  101 1    
    68   33  102 1    
    69   33  103 1    
    70   34   35 am   BACKBONE|DICT|INTERRES
    71   34  104 1    
    72   35   36 2    
    73   37   38 2    
    74   37   39 am   BACKBONE|DICT|INTERRES
    75   39   40 1    
    76   39  105 1    
    77   40   41 1    
    78   40   42 1    
    79   40  106 1    
    80   41  107 1    
    81   41  108 1    
    82   41  109 1    
    83   42   43 2    
    84   42   44 am   BACKBONE|DICT|INTERRES
    85   44   45 1    
    86   44  110 1    
    87   45   46 1    
    88   45   47 1    
    89   45  111 1    
    90   46  112 1    
    91   46  113 1    
    92   46  114 1    
    93   47   48 2    
    94   47   49 am   BACKBONE|DICT|INTERRES
    95   49   50 1    
    96   49  115 1    
    97   50   51 1    
    98   50   52 1    
    99   50  116 1    
   100   51  117 1    
   101   51  118 1    
   102   51  119 1    
   103   52   53 2    
   104   52   54 am   BACKBONE|DICT|INTERRES
   105   54   55 1    
   106   54  120 1    
   107   55   56 1    
   108   55   57 1    
   109   55  121 1    
   110   56  122 1    
   111   56  123 1    
   112   56  124 1    
   113   57   58 2    
   114   57   59 am   BACKBONE|DICT|INTERRES
   115   59   60 1    
   116   59  125 1    
   117   60   61 1    
   118   60   62 1    
   119   60  126 1    
   120   61  127 1    
   121   61  128 1    
   122   61  129 1    
   123   62   63 2    
   124   62   64 am   BACKBONE|DICT|INTERRES
   125   64   65 1    
   126   64  130 1    
   127   65   66 1    
   128   65   69 1    
   129   65  131 1    
   130   66   67 am   BACKBONE|DICT|INTERRES
   131   66   68 2    
   132   67  132 1    
   133   67  133 1    
   134   69   70 1    
   135   69  134 1    
   136   69  135 1    
   137   70   71 1    
   138   71  136 1    
   139   71  137 1    
@<TRIPOS>SUBSTRUCTURE
     1 UNK         1 GROUP             0       ****    0 ROOT    
