@<TRIPOS>MOLECULE
3R136
137   139    1
SMALL
USER_CHARGES


@<TRIPOS>ATOM
      1 CA         30.1510   27.6815    2.1026 C.3       0 UNK        -0.1979 
      2 C          29.8735   26.5270    3.0527 C.2       0 UNK         0.4864 
      3 O          29.1739   26.7148    4.0474 O.2       0 UNK        -0.5359 
      4 N          30.4012   25.3305    2.7518 N.am      1 UNK        -0.4318 
      5 CA         30.2536   24.1219    3.5777 C.3       1 UNK         0.0824 
      6 C6         31.2444   23.0065    3.1592 C.3       12 UNK        -0.0944 
      7 S7         30.9504   22.3274    1.4863 S.3       12 UNK        -0.2672 
      8 C8         32.5130   22.7012    0.6377 C.3       12 UNK         0.0333 
      9 C9         32.6158   24.1702    0.2592 C.ar      12 UNK        -0.0807 
     10 C10        33.4376   25.0333    0.9897 C.ar      12 UNK        -0.0894 
     11 C11        33.5696   26.3731    0.6142 C.ar      12 UNK        -0.0804 
     12 C12        32.8821   26.8413   -0.5103 C.ar      12 UNK        -0.0824 
     13 C13        32.0518   25.9893   -1.2456 C.ar      12 UNK        -0.0762 
     14 C14        31.9174   24.6553   -0.8510 C.ar      12 UNK        -0.0782 
     15 C15        31.3503   26.4966   -2.4989 C.3       12 UNK         0.0230 
     16 S16        30.1629   27.8292   -2.1454 S.3       12 UNK        -0.2608 
     17 C17        28.7540   26.9156   -1.4291 C.3       12 UNK        -0.0989 
     18 CA         27.4278   27.7208   -1.5030 C.3       5 UNK         0.0716 
     19 N          26.2785   26.8331   -1.3443 N.am      5 UNK        -0.4135 
     20 C          25.3466   26.5847   -2.2742 C.2       4 UNK         0.5031 
     21 O          25.3764   27.0527   -3.4136 O.2       4 UNK        -0.5229 
     22 CA         24.1802   25.6482   -1.8933 C.3       4 UNK         0.0329 
     23 CB         24.3718   24.2651   -2.5376 C.3       4 UNK        -0.2001 
     24 N          24.0105   25.4764   -0.4493 N.am      4 UNK        -0.4303 
     25 C          23.5857   26.4259    0.3950 C.2       3 UNK         0.5044 
     26 O          23.1482   27.5165    0.0261 O.2       3 UNK        -0.5152 
     27 CA         23.6752   26.1244    1.9053 C.3       3 UNK         0.0319 
     28 CB         22.2706   25.9004    2.4905 C.3       3 UNK        -0.2001 
     29 N          24.5335   24.9913    2.2856 N.am      3 UNK        -0.4354 
     30 C          25.8438   24.8705    2.0293 C.2       2 UNK         0.4964 
     31 O          26.4873   25.6521    1.3242 O.2       2 UNK        -0.5047 
     32 CA         26.5427   23.6422    2.6188 C.3       2 UNK         0.0288 
     33 CB         26.3176   22.4014    1.7374 C.3       2 UNK        -0.2113 
     34 N          27.9679   23.9354    2.6863 N.am      2 UNK        -0.4145 
     35 C          28.8029   23.5924    3.6725 C.2       1 UNK         0.5006 
     36 O          28.4753   22.8904    4.6317 O.2       1 UNK        -0.5103 
     37 C          27.3621   28.8259   -0.4286 C.2       5 UNK         0.5055 
     38 O          26.6633   28.6866    0.5778 O.2       5 UNK        -0.5220 
     39 N          28.1291   29.8950   -0.6510 N.am      6 UNK        -0.4450 
     40 CA         28.4358   30.9491    0.3063 C.3       6 UNK         0.0367 
     41 CB         27.4097   32.0900    0.1998 C.3       6 UNK        -0.1929 
     42 C          29.8515   31.4213   -0.0344 C.2       6 UNK         0.5070 
     43 O          30.1258   31.6838   -1.2083 O.2       6 UNK        -0.5237 
     44 N          30.7289   31.4898    0.9701 N.am      7 UNK        -0.4739 
     45 CA         32.1454   31.8152    0.8119 C.3       7 UNK         0.0276 
     46 CB         32.9025   30.6219    0.1858 C.3       7 UNK        -0.1927 
     47 C          32.6963   32.2853    2.1656 C.2       7 UNK         0.5013 
     48 O          32.1604   33.2449    2.7245 O.2       7 UNK        -0.5193 
     49 N          33.7362   31.6164    2.6831 N.am      8 UNK        -0.4253 
     50 CA         34.3965   31.8983    3.9618 C.3       8 UNK         0.0242 
     51 CB         35.7883   31.2379    3.9543 C.3       8 UNK        -0.2000 
     52 C          33.5410   31.4498    5.1628 C.2       8 UNK         0.4948 
     53 O          33.9339   30.5438    5.9018 O.2       8 UNK        -0.5275 
     54 N          32.3661   32.0766    5.3133 N.am      9 UNK        -0.4246 
     55 CA         31.3060   31.7530    6.2708 C.3       9 UNK         0.0261 
     56 CB         31.7419   32.1017    7.7136 C.3       9 UNK        -0.1959 
     57 C          30.8347   30.3001    6.0713 C.2       9 UNK         0.5033 
     58 O          30.3260   29.9863    4.9945 O.2       9 UNK        -0.5390 
     59 N          31.0338   29.4491    7.0847 N.am      10 UNK        -0.4215 
     60 CA         30.7386   28.0159    7.0497 C.3       10 UNK         0.0240 
     61 CB         30.4222   27.5470    8.4812 C.3       10 UNK        -0.1982 
     62 C          31.8704   27.1654    6.4372 C.2       10 UNK         0.4970 
     63 O          31.6925   25.9524    6.3259 O.2       10 UNK        -0.4916 
     64 N          33.0145   27.7779    6.0916 N.am      11 UNK        -0.4279 
     65 CA         34.2101   27.1213    5.5291 C.3       11 UNK         0.1003 
     66 C          34.8966   26.0872    6.4762 C.2       11 UNK         0.5709 
     67 N          34.6688   26.1388    7.7837 N.am      11 UNK        -0.7358 
     68 O          35.6775   25.2478    6.0334 O.2       11 UNK        -0.4999 
     69 C69        33.9715   26.5780    4.0896 C.3       12 UNK        -0.0954 
     70 S70        33.6573   27.9294    2.9056 S.3       12 UNK        -0.2268 
     71 C71        34.4757   27.3082    1.4026 C.3       12 UNK         0.0203 
     72 H72        30.6864   28.4738    2.6251 H         1 UNK         0.0888 
     73 H73        29.2120   28.0933    1.7382 H         1 UNK         0.0888 
     74 H74        30.7479   27.3747    1.2455 H         1 UNK         0.0888 
     75 H75        30.9690   25.2227    1.9217 H         1 UNK         0.3017 
     76 H76        30.5210   24.4127    4.5948 H         1 UNK         0.0873 
     77 H77        32.2657   23.3825    3.2313 H         1 UNK         0.0745 
     78 H78        31.1950   22.1787    3.8691 H         1 UNK         0.0745 
     79 H79        33.3541   22.3957    1.2622 H         1 UNK         0.0705 
     80 H80        32.5729   22.0930   -0.2661 H         1 UNK         0.0705 
     81 H81        33.9849   24.6607    1.8444 H         1 UNK         0.1334 
     82 H82        32.9942   27.8699   -0.8228 H         1 UNK         0.1417 
     83 H83        31.2889   23.9838   -1.4206 H         1 UNK         0.1562 
     84 H84        30.8438   25.6868   -3.0264 H         1 UNK         0.0748 
     85 H85        32.1047   26.8799   -3.1873 H         1 UNK         0.0748 
     86 H86        28.9859   26.6141   -0.4062 H         1 UNK         0.0940 
     87 H87        28.6459   25.9877   -1.9932 H         1 UNK         0.0940 
     88 H88        27.3709   28.2149   -2.4754 H         1 UNK         0.0703 
     89 H89        26.1618   26.4613   -0.4043 H         1 UNK         0.3081 
     90 H90        23.2645   26.0893   -2.2927 H         1 UNK         0.0719 
     91 H91        25.2703   23.7686   -2.1687 H         1 UNK         0.0809 
     92 H92        23.5208   23.6130   -2.3400 H         1 UNK         0.0809 
     93 H93        24.4678   24.3490   -3.6211 H         1 UNK         0.0809 
     94 H94        24.3436   24.6103   -0.0525 H         1 UNK         0.2990 
     95 H95        24.1001   27.0154    2.3724 H         1 UNK         0.0690 
     96 H96        22.3017   25.8053    3.5761 H         1 UNK         0.0788 
     97 H97        21.8046   25.0011    2.0857 H         1 UNK         0.0788 
     98 H98        21.6117   26.7395    2.2619 H         1 UNK         0.0788 
     99 H99        24.0906   24.2751    2.8440 H         1 UNK         0.2993 
    100 H100       26.1493   23.4647    3.6223 H         1 UNK         0.0949 
    101 H101       26.6820   22.5577    0.7210 H         1 UNK         0.0767 
    102 H102       26.8329   21.5311    2.1446 H         1 UNK         0.0767 
    103 H103       25.2585   22.1493    1.6726 H         1 UNK         0.0767 
    104 H104       28.2946   24.5780    1.9764 H         1 UNK         0.3013 
    105 H105       28.7135   29.9156   -1.4796 H         1 UNK         0.3121 
    106 H106       28.4236   30.5416    1.3199 H         1 UNK         0.0774 
    107 H107       26.4035   31.7393    0.4299 H         1 UNK         0.0815 
    108 H108       27.6445   32.8907    0.9021 H         1 UNK         0.0815 
    109 H109       27.3926   32.5249   -0.8003 H         1 UNK         0.0815 
    110 H110       30.4232   31.3144    1.9187 H         1 UNK         0.2987 
    111 H111       32.2358   32.6695    0.1372 H         1 UNK         0.0949 
    112 H112       32.7636   29.7138    0.7705 H         1 UNK         0.0806 
    113 H113       32.5442   30.4145   -0.8227 H         1 UNK         0.0806 
    114 H114       33.9719   30.8182    0.1001 H         1 UNK         0.0806 
    115 H115       34.0736   30.8076    2.1820 H         1 UNK         0.3010 
    116 H116       34.5392   32.9776    4.0498 H         1 UNK         0.0829 
    117 H117       36.4023   31.6127    3.1354 H         1 UNK         0.0813 
    118 H118       36.3242   31.4472    4.8812 H         1 UNK         0.0813 
    119 H119       35.7212   30.1536    3.8555 H         1 UNK         0.0813 
    120 H120       32.1178   32.7444    4.5876 H         1 UNK         0.3038 
    121 H121       30.4547   32.3873    6.0197 H         1 UNK         0.0769 
    122 H122       32.6137   31.5327    8.0380 H         1 UNK         0.0811 
    123 H123       30.9361   31.9173    8.4254 H         1 UNK         0.0811 
    124 H124       31.9974   33.1583    7.7945 H         1 UNK         0.0811 
    125 H125       31.4805   29.8009    7.9193 H         1 UNK         0.3204 
    126 H126       29.8494   27.8530    6.4371 H         1 UNK         0.0748 
    127 H127       30.1423   26.4926    8.4957 H         1 UNK         0.0771 
    128 H128       31.2792   27.6656    9.1454 H         1 UNK         0.0771 
    129 H129       29.5873   28.1049    8.9058 H         1 UNK         0.0771 
    130 H130       33.0995   28.7841    6.1988 H         1 UNK         0.2980 
    131 H131       34.9527   27.9157    5.4468 H         1 UNK         0.0545 
    132 H132       34.0438   26.8293    8.1660 H         1 UNK         0.3459 
    133 H133       35.1246   25.4759    8.3904 H         1 UNK         0.3459 
    134 H134       33.1358   25.8778    4.0624 H         1 UNK         0.0616 
    135 H135       34.8437   26.0231    3.7430 H         1 UNK         0.0616 
    136 H136       35.4100   26.8062    1.6569 H         1 UNK         0.0634 
    137 H137       34.7578   28.1622    0.7855 H         1 UNK         0.0634 
@<TRIPOS>BOND
     1    1    2 1    
     2    1   72 1    
     3    1   73 1    
     4    1   74 1    
     5    2    3 2    
     6    2    4 am   BACKBONE|DICT|INTERRES
     7    4    5 1    
     8    4   75 1    
     9    5    6 1    
    10    5   35 1    
    11    5   76 1    
    12    6    7 1    
    13    6   77 1    
    14    6   78 1    
    15    7    8 1    
    16    8    9 1    
    17    8   79 1    
    18    8   80 1    
    19    9   10 ar   
    20    9   14 ar   
    21   10   11 ar   
    22   10   81 1    
    23   11   12 ar   
    24   11   71 1    
    25   12   13 ar   
    26   12   82 1    
    27   13   14 ar   
    28   13   15 1    
    29   14   83 1    
    30   15   16 1    
    31   15   84 1    
    32   15   85 1    
    33   16   17 1    
    34   17   18 1    
    35   17   86 1    
    36   17   87 1    
    37   18   19 1    
    38   18   37 1    
    39   18   88 1    
    40   19   20 am   BACKBONE|DICT|INTERRES
    41   19   89 1    
    42   20   21 2    
    43   20   22 1    
    44   22   23 1    
    45   22   24 1    
    46   22   90 1    
    47   23   91 1    
    48   23   92 1    
    49   23   93 1    
    50   24   25 am   BACKBONE|DICT|INTERRES
    51   24   94 1    
    52   25   26 2    
    53   25   27 1    
    54   27   28 1    
    55   27   29 1    
    56   27   95 1    
    57   28   96 1    
    58   28   97 1    
    59   28   98 1    
    60   29   30 am   BACKBONE|DICT|INTERRES
    61   29   99 1    
    62   30   31 2    
    63   30   32 1    
    64   32   33 1    
    65   32   34 1    
    66   32  100 1    
    67   33  101 1    
    68   33  102 1    
    69   33  103 1    
    70   34   35 am   BACKBONE|DICT|INTERRES
    71   34  104 1    
    72   35   36 2    
    73   37   38 2    
    74   37   39 am   BACKBONE|DICT|INTERRES
    75   39   40 1    
    76   39  105 1    
    77   40   41 1    
    78   40   42 1    
    79   40  106 1    
    80   41  107 1    
    81   41  108 1    
    82   41  109 1    
    83   42   43 2    
    84   42   44 am   BACKBONE|DICT|INTERRES
    85   44   45 1    
    86   44  110 1    
    87   45   46 1    
    88   45   47 1    
    89   45  111 1    
    90   46  112 1    
    91   46  113 1    
    92   46  114 1    
    93   47   48 2    
    94   47   49 am   BACKBONE|DICT|INTERRES
    95   49   50 1    
    96   49  115 1    
    97   50   51 1    
    98   50   52 1    
    99   50  116 1    
   100   51  117 1    
   101   51  118 1    
   102   51  119 1    
   103   52   53 2    
   104   52   54 am   BACKBONE|DICT|INTERRES
   105   54   55 1    
   106   54  120 1    
   107   55   56 1    
   108   55   57 1    
   109   55  121 1    
   110   56  122 1    
   111   56  123 1    
   112   56  124 1    
   113   57   58 2    
   114   57   59 am   BACKBONE|DICT|INTERRES
   115   59   60 1    
   116   59  125 1    
   117   60   61 1    
   118   60   62 1    
   119   60  126 1    
   120   61  127 1    
   121   61  128 1    
   122   61  129 1    
   123   62   63 2    
   124   62   64 am   BACKBONE|DICT|INTERRES
   125   64   65 1    
   126   64  130 1    
   127   65   66 1    
   128   65   69 1    
   129   65  131 1    
   130   66   67 am   BACKBONE|DICT|INTERRES
   131   66   68 2    
   132   67  132 1    
   133   67  133 1    
   134   69   70 1    
   135   69  134 1    
   136   69  135 1    
   137   70   71 1    
   138   71  136 1    
   139   71  137 1    
@<TRIPOS>SUBSTRUCTURE
     1 UNK         1 GROUP             0       ****    0 ROOT    
