@<TRIPOS>MOLECULE
3R136
137   139    1
SMALL
USER_CHARGES


@<TRIPOS>ATOM
      1 CA         28.3184   20.3508    5.6966 C.3       0 UNK        -0.1979 
      2 C          28.9102   21.4075    4.7753 C.2       0 UNK         0.4864 
      3 O          30.1335   21.5090    4.6683 O.2       0 UNK        -0.5359 
      4 N          28.0527   22.1988    4.1181 N.am      1 UNK        -0.4318 
      5 CA         28.4396   23.2359    3.1568 C.3       1 UNK         0.0824 
      6 C6         27.2660   24.1993    2.8534 C.3       12 UNK        -0.0944 
      7 S7         26.9349   25.2914    4.2749 S.3       12 UNK        -0.2672 
      8 C8         27.5461   26.8996    3.6624 C.3       12 UNK         0.0333 
      9 C9         28.9752   26.8449    3.1304 C.ar      12 UNK        -0.0807 
     10 C10        30.0177   26.3726    3.9311 C.ar      12 UNK        -0.0894 
     11 C11        31.3228   26.3207    3.4374 C.ar      12 UNK        -0.0804 
     12 C12        31.5911   26.7960    2.1500 C.ar      12 UNK        -0.0824 
     13 C13        30.5660   27.3003    1.3409 C.ar      12 UNK        -0.0762 
     14 C14        29.2547   27.2916    1.8355 C.ar      12 UNK        -0.0782 
     15 C15        30.9387   27.8831   -0.0280 C.3       12 UNK         0.0230 
     16 S16        29.5990   27.9920   -1.2673 S.3       12 UNK        -0.2608 
     17 C17        28.7653   29.5495   -0.7938 C.3       12 UNK        -0.0989 
     18 CA         27.3601   29.7391   -1.4296 C.3       5 UNK         0.0716 
     19 N          26.5359   28.5246   -1.3553 N.am      5 UNK        -0.4135 
     20 C          25.4651   28.2601   -2.1153 C.2       4 UNK         0.5031 
     21 O          25.0011   29.0516   -2.9378 O.2       4 UNK        -0.5229 
     22 CA         24.8307   26.8638   -1.9367 C.3       4 UNK         0.0329 
     23 CB         23.5363   26.6912   -2.7538 C.3       4 UNK        -0.2001 
     24 N          25.7688   25.7974   -2.3010 N.am      4 UNK        -0.4303 
     25 C          26.8043   25.4001   -1.5518 C.2       3 UNK         0.5044 
     26 O          27.0326   25.8463   -0.4222 O.2       3 UNK        -0.5152 
     27 CA         27.7595   24.3756   -2.1794 C.3       3 UNK         0.0319 
     28 CB         28.4113   24.9245   -3.4668 C.3       3 UNK        -0.2001 
     29 N          28.7800   24.0573   -1.1874 N.am      3 UNK        -0.4354 
     30 C          29.6532   23.0456   -1.2221 C.2       2 UNK         0.4964 
     31 O          29.7309   22.2304   -2.1419 O.2       2 UNK        -0.5047 
     32 CA         30.5965   22.9144   -0.0134 C.3       2 UNK         0.0288 
     33 CB         31.8669   23.7532   -0.2285 C.3       2 UNK        -0.2113 
     34 N          29.9677   23.3089    1.2503 N.am      2 UNK        -0.4145 
     35 C          28.9891   22.6215    1.8566 C.2       1 UNK         0.5006 
     36 O          28.5093   21.5713    1.4200 O.2       1 UNK        -0.5103 
     37 C          26.6631   30.9834   -0.8286 C.2       5 UNK         0.5055 
     38 O          27.1389   32.0972   -1.0507 O.2       5 UNK        -0.5220 
     39 N          25.5766   30.7719   -0.0653 N.am      6 UNK        -0.4450 
     40 CA         24.7448   31.7574    0.6469 C.3       6 UNK         0.0367 
     41 CB         24.1714   32.8202   -0.3145 C.3       6 UNK        -0.1929 
     42 C          25.4136   32.3911    1.8851 C.2       6 UNK         0.5070 
     43 O          24.8212   33.2752    2.5052 O.2       6 UNK        -0.5237 
     44 N          26.6036   31.9092    2.2525 N.am      7 UNK        -0.4739 
     45 CA         27.3943   32.2805    3.4211 C.3       7 UNK         0.0276 
     46 CB         28.0153   33.6781    3.2294 C.3       7 UNK        -0.1927 
     47 C          28.4874   31.2175    3.5835 C.2       7 UNK         0.5013 
     48 O          28.7790   30.5025    2.6219 O.2       7 UNK        -0.5193 
     49 N          29.0853   31.1352    4.7770 N.am      8 UNK        -0.4253 
     50 CA         30.2544   30.2905    5.0304 C.3       8 UNK         0.0242 
     51 CB         30.4156   30.0786    6.5442 C.3       8 UNK        -0.2000 
     52 C          31.5224   30.9229    4.4317 C.2       8 UNK         0.4948 
     53 O          31.6503   32.1507    4.4259 O.2       8 UNK        -0.5275 
     54 N          32.4394   30.0697    3.9683 N.am      9 UNK        -0.4246 
     55 CA         33.7582   30.4444    3.4575 C.3       9 UNK         0.0261 
     56 CB         34.0372   29.6112    2.1902 C.3       9 UNK        -0.1959 
     57 C          34.8225   30.2220    4.5490 C.2       9 UNK         0.5033 
     58 O          34.4908   30.1277    5.7344 O.2       9 UNK        -0.5390 
     59 N          36.0911   30.0920    4.1390 N.am      10 UNK        -0.4215 
     60 CA         37.1980   29.6307    4.9820 C.3       10 UNK         0.0240 
     61 CB         38.5289   30.1119    4.3735 C.3       10 UNK        -0.1982 
     62 C          37.1337   28.0979    5.1408 C.2       10 UNK         0.4970 
     63 O          37.9825   27.3828    4.6056 O.2       10 UNK        -0.4916 
     64 N          36.0835   27.6269    5.8233 N.am      11 UNK        -0.4279 
     65 CA         35.7167   26.2083    5.9636 C.3       11 UNK         0.1003 
     66 C          36.6830   25.3547    6.8362 C.2       11 UNK         0.5709 
     67 N          37.5790   25.9489    7.6155 N.am      11 UNK        -0.7358 
     68 O          36.6196   24.1281    6.8004 O.2       11 UNK        -0.4999 
     69 C69        34.2496   26.0385    6.4453 C.3       12 UNK        -0.0954 
     70 S70        33.0377   26.9986    5.4745 S.3       12 UNK        -0.2268 
     71 C71        32.4361   25.7521    4.3024 C.3       12 UNK         0.0203 
     72 H72        27.2290   20.3819    5.7061 H         1 UNK         0.0888 
     73 H73        28.6263   19.3568    5.3734 H         1 UNK         0.0888 
     74 H74        28.6705   20.5025    6.7166 H         1 UNK         0.0888 
     75 H75        27.0593   22.0631    4.2366 H         1 UNK         0.3017 
     76 H76        29.2536   23.8027    3.6106 H         1 UNK         0.0873 
     77 H77        27.4738   24.8178    1.9790 H         1 UNK         0.0745 
     78 H78        26.3579   23.6441    2.6116 H         1 UNK         0.0745 
     79 H79        26.8608   27.2568    2.8920 H         1 UNK         0.0705 
     80 H80        27.5011   27.6278    4.4733 H         1 UNK         0.0705 
     81 H81        29.8088   26.0282    4.9351 H         1 UNK         0.1334 
     82 H82        32.6067   26.7808    1.7789 H         1 UNK         0.1417 
     83 H83        28.4390   27.6517    1.2293 H         1 UNK         0.1562 
     84 H84        31.7345   27.2795   -0.4663 H         1 UNK         0.0748 
     85 H85        31.3598   28.8781    0.1194 H         1 UNK         0.0748 
     86 H86        29.4159   30.3774   -1.0823 H         1 UNK         0.0940 
     87 H87        28.7031   29.5986    0.2907 H         1 UNK         0.0940 
     88 H88        27.5121   29.9531   -2.4898 H         1 UNK         0.0703 
     89 H89        26.8862   27.7717   -0.7699 H         1 UNK         0.3081 
     90 H90        24.5710   26.7581   -0.8810 H         1 UNK         0.0719 
     91 H91        23.7194   26.7740   -3.8259 H         1 UNK         0.0809 
     92 H92        23.0749   25.7216   -2.5659 H         1 UNK         0.0809 
     93 H93        22.8024   27.4535   -2.4884 H         1 UNK         0.0809 
     94 H94        25.6624   25.4048   -3.2254 H         1 UNK         0.2990 
     95 H95        27.1914   23.4712   -2.4054 H         1 UNK         0.0690 
     96 H96        29.0913   24.1995   -3.9136 H         1 UNK         0.0788 
     97 H97        28.9799   25.8342   -3.2723 H         1 UNK         0.0788 
     98 H98        27.6647   25.1622   -4.2249 H         1 UNK         0.0788 
     99 H99        28.7550   24.6715   -0.3820 H         1 UNK         0.2993 
    100 H100       30.8867   21.8642    0.0663 H         1 UNK         0.0949 
    101 H101       32.5706   23.6293    0.5951 H         1 UNK         0.0767 
    102 H102       32.3816   23.4527   -1.1422 H         1 UNK         0.0767 
    103 H103       31.6376   24.8152   -0.3188 H         1 UNK         0.0767 
    104 H104       30.2967   24.1669    1.6707 H         1 UNK         0.3013 
    105 H105       25.2936   29.8101    0.0582 H         1 UNK         0.3121 
    106 H106       23.8977   31.1908    1.0365 H         1 UNK         0.0774 
    107 H107       23.4189   33.4319    0.1847 H         1 UNK         0.0815 
    108 H108       24.9431   33.4977   -0.6803 H         1 UNK         0.0815 
    109 H109       23.6912   32.3585   -1.1772 H         1 UNK         0.0815 
    110 H110       27.0289   31.1695    1.7067 H         1 UNK         0.2987 
    111 H111       26.7536   32.2701    4.3053 H         1 UNK         0.0949 
    112 H112       28.6418   33.7177    2.3373 H         1 UNK         0.0806 
    113 H113       27.2501   34.4485    3.1348 H         1 UNK         0.0806 
    114 H114       28.6418   33.9511    4.0795 H         1 UNK         0.0806 
    115 H115       28.8266   31.7844    5.5056 H         1 UNK         0.3010 
    116 H116       30.0913   29.3169    4.5616 H         1 UNK         0.0829 
    117 H117       29.5364   29.5983    6.9739 H         1 UNK         0.0813 
    118 H118       31.2717   29.4365    6.7574 H         1 UNK         0.0813 
    119 H119       30.5777   31.0208    7.0693 H         1 UNK         0.0813 
    120 H120       32.2817   29.0786    4.0930 H         1 UNK         0.3038 
    121 H121       33.7739   31.5024    3.1879 H         1 UNK         0.0769 
    122 H122       34.1836   28.5560    2.4248 H         1 UNK         0.0811 
    123 H123       34.9264   29.9613    1.6653 H         1 UNK         0.0811 
    124 H124       33.2105   29.6836    1.4840 H         1 UNK         0.0811 
    125 H125       36.2835   30.1628    3.1502 H         1 UNK         0.3204 
    126 H126       37.1063   30.0734    5.9764 H         1 UNK         0.0748 
    127 H127       38.5675   31.2000    4.3172 H         1 UNK         0.0771 
    128 H128       39.3747   29.7904    4.9829 H         1 UNK         0.0771 
    129 H129       38.6831   29.7188    3.3677 H         1 UNK         0.0771 
    130 H130       35.4082   28.2972    6.1742 H         1 UNK         0.2980 
    131 H131       35.7735   25.7780    4.9619 H         1 UNK         0.0545 
    132 H132       38.2014   25.3851    8.1727 H         1 UNK         0.3459 
    133 H133       37.6385   26.9537    7.6497 H         1 UNK         0.3459 
    134 H134       34.1594   26.3605    7.4843 H         1 UNK         0.0616 
    135 H135       33.9594   24.9863    6.4310 H         1 UNK         0.0616 
    136 H136       33.2660   25.4058    3.6845 H         1 UNK         0.0634 
    137 H137       32.0684   24.8823    4.8494 H         1 UNK         0.0634 
@<TRIPOS>BOND
     1    1    2 1    
     2    1   72 1    
     3    1   73 1    
     4    1   74 1    
     5    2    3 2    
     6    2    4 am   BACKBONE|DICT|INTERRES
     7    4    5 1    
     8    4   75 1    
     9    5    6 1    
    10    5   35 1    
    11    5   76 1    
    12    6    7 1    
    13    6   77 1    
    14    6   78 1    
    15    7    8 1    
    16    8    9 1    
    17    8   79 1    
    18    8   80 1    
    19    9   10 ar   
    20    9   14 ar   
    21   10   11 ar   
    22   10   81 1    
    23   11   12 ar   
    24   11   71 1    
    25   12   13 ar   
    26   12   82 1    
    27   13   14 ar   
    28   13   15 1    
    29   14   83 1    
    30   15   16 1    
    31   15   84 1    
    32   15   85 1    
    33   16   17 1    
    34   17   18 1    
    35   17   86 1    
    36   17   87 1    
    37   18   19 1    
    38   18   37 1    
    39   18   88 1    
    40   19   20 am   BACKBONE|DICT|INTERRES
    41   19   89 1    
    42   20   21 2    
    43   20   22 1    
    44   22   23 1    
    45   22   24 1    
    46   22   90 1    
    47   23   91 1    
    48   23   92 1    
    49   23   93 1    
    50   24   25 am   BACKBONE|DICT|INTERRES
    51   24   94 1    
    52   25   26 2    
    53   25   27 1    
    54   27   28 1    
    55   27   29 1    
    56   27   95 1    
    57   28   96 1    
    58   28   97 1    
    59   28   98 1    
    60   29   30 am   BACKBONE|DICT|INTERRES
    61   29   99 1    
    62   30   31 2    
    63   30   32 1    
    64   32   33 1    
    65   32   34 1    
    66   32  100 1    
    67   33  101 1    
    68   33  102 1    
    69   33  103 1    
    70   34   35 am   BACKBONE|DICT|INTERRES
    71   34  104 1    
    72   35   36 2    
    73   37   38 2    
    74   37   39 am   BACKBONE|DICT|INTERRES
    75   39   40 1    
    76   39  105 1    
    77   40   41 1    
    78   40   42 1    
    79   40  106 1    
    80   41  107 1    
    81   41  108 1    
    82   41  109 1    
    83   42   43 2    
    84   42   44 am   BACKBONE|DICT|INTERRES
    85   44   45 1    
    86   44  110 1    
    87   45   46 1    
    88   45   47 1    
    89   45  111 1    
    90   46  112 1    
    91   46  113 1    
    92   46  114 1    
    93   47   48 2    
    94   47   49 am   BACKBONE|DICT|INTERRES
    95   49   50 1    
    96   49  115 1    
    97   50   51 1    
    98   50   52 1    
    99   50  116 1    
   100   51  117 1    
   101   51  118 1    
   102   51  119 1    
   103   52   53 2    
   104   52   54 am   BACKBONE|DICT|INTERRES
   105   54   55 1    
   106   54  120 1    
   107   55   56 1    
   108   55   57 1    
   109   55  121 1    
   110   56  122 1    
   111   56  123 1    
   112   56  124 1    
   113   57   58 2    
   114   57   59 am   BACKBONE|DICT|INTERRES
   115   59   60 1    
   116   59  125 1    
   117   60   61 1    
   118   60   62 1    
   119   60  126 1    
   120   61  127 1    
   121   61  128 1    
   122   61  129 1    
   123   62   63 2    
   124   62   64 am   BACKBONE|DICT|INTERRES
   125   64   65 1    
   126   64  130 1    
   127   65   66 1    
   128   65   69 1    
   129   65  131 1    
   130   66   67 am   BACKBONE|DICT|INTERRES
   131   66   68 2    
   132   67  132 1    
   133   67  133 1    
   134   69   70 1    
   135   69  134 1    
   136   69  135 1    
   137   70   71 1    
   138   71  136 1    
   139   71  137 1    
@<TRIPOS>SUBSTRUCTURE
     1 UNK         1 GROUP             0       ****    0 ROOT    
