@<TRIPOS>MOLECULE
3R136
137   139    1
SMALL
USER_CHARGES


@<TRIPOS>ATOM
      1 CA         30.5714   22.8608    3.5991 C.3       0 UNK        -0.1979 
      2 C          29.9783   21.8682    2.6153 C.2       0 UNK         0.4864 
      3 O          29.0948   21.0933    2.9838 O.2       0 UNK        -0.5359 
      4 N          30.4516   21.8921    1.3616 N.am      1 UNK        -0.4318 
      5 CA         29.9134   21.0809    0.2628 C.3       1 UNK         0.0824 
      6 C6         30.9738   20.8168   -0.8340 C.3       12 UNK        -0.0944 
      7 S7         31.5626   22.3032   -1.7183 S.3       12 UNK        -0.2672 
      8 C8         33.1603   22.6619   -0.9115 C.3       12 UNK         0.0333 
      9 C9         33.0713   23.8340    0.0591 C.ar      12 UNK        -0.0807 
     10 C10        33.5127   23.7079    1.3810 C.ar      12 UNK        -0.0894 
     11 C11        33.4917   24.8036    2.2542 C.ar      12 UNK        -0.0804 
     12 C12        33.0077   26.0336    1.7864 C.ar      12 UNK        -0.0824 
     13 C13        32.5636   26.1722    0.4690 C.ar      12 UNK        -0.0762 
     14 C14        32.6049   25.0725   -0.3891 C.ar      12 UNK        -0.0782 
     15 C15        32.0701   27.5159   -0.0462 C.3       12 UNK         0.0230 
     16 S16        30.2799   27.4971   -0.3701 S.3       12 UNK        -0.2608 
     17 C17        29.6178   27.4887    1.3288 C.3       12 UNK        -0.0989 
     18 CA         28.5423   28.5850    1.5649 C.3       5 UNK         0.0716 
     19 N          27.5327   28.1549    2.5409 N.am      5 UNK        -0.4135 
     20 C          27.7305   27.8452    3.8295 C.2       4 UNK         0.5031 
     21 O          28.8182   27.9328    4.3965 O.2       4 UNK        -0.5229 
     22 CA         26.5038   27.3735    4.6314 C.3       4 UNK         0.0329 
     23 CB         25.5765   28.5549    4.9800 C.3       4 UNK        -0.2001 
     24 N          25.7685   26.2633    4.0072 N.am      4 UNK        -0.4303 
     25 C          25.0955   26.2447    2.8481 C.2       3 UNK         0.5044 
     26 O          24.9351   27.2268    2.1189 O.2       3 UNK        -0.5152 
     27 CA         24.5482   24.8777    2.4033 C.3       3 UNK         0.0319 
     28 CB         23.0354   24.9485    2.1355 C.3       3 UNK        -0.2001 
     29 N          25.2319   24.3866    1.2031 N.am      3 UNK        -0.4354 
     30 C          26.5425   24.1190    1.1189 C.2       2 UNK         0.4964 
     31 O          27.3362   24.2571    2.0544 O.2       2 UNK        -0.5047 
     32 CA         27.0536   23.6232   -0.2412 C.3       2 UNK         0.0288 
     33 CB         27.2869   24.8066   -1.1952 C.3       2 UNK        -0.2113 
     34 N          28.3214   22.9354   -0.0212 N.am      2 UNK        -0.4145 
     35 C          28.5907   21.6539   -0.3002 C.2       1 UNK         0.5006 
     36 O          27.8384   20.9198   -0.9443 O.2       1 UNK        -0.5103 
     37 C          29.1360   29.9857    1.8669 C.2       5 UNK         0.5055 
     38 O          30.1467   30.3689    1.2744 O.2       5 UNK        -0.5220 
     39 N          28.4772   30.7525    2.7517 N.am      6 UNK        -0.4450 
     40 CA         28.9228   32.0351    3.3116 C.3       6 UNK         0.0367 
     41 CB         27.9131   32.4922    4.3763 C.3       6 UNK        -0.1929 
     42 C          29.1902   33.1586    2.2945 C.2       6 UNK         0.5070 
     43 O          29.9067   34.1037    2.6242 O.2       6 UNK        -0.5237 
     44 N          28.6450   33.0329    1.0774 N.am      7 UNK        -0.4739 
     45 CA         28.9484   33.9012   -0.0631 C.3       7 UNK         0.0276 
     46 CB         27.9472   33.6136   -1.1936 C.3       7 UNK        -0.1927 
     47 C          30.3959   33.7543   -0.5754 C.2       7 UNK         0.5013 
     48 O          30.9090   34.6961   -1.1813 O.2       7 UNK        -0.5193 
     49 N          31.0197   32.5937   -0.3294 N.am      8 UNK        -0.4253 
     50 CA         32.4070   32.2917   -0.6755 C.3       8 UNK         0.0242 
     51 CB         32.4567   30.9998   -1.5076 C.3       8 UNK        -0.2000 
     52 C          33.2637   32.1730    0.5927 C.2       8 UNK         0.4948 
     53 O          34.2682   32.8771    0.7038 O.2       8 UNK        -0.5275 
     54 N          32.8535   31.3070    1.5280 N.am      9 UNK        -0.4246 
     55 CA         33.5185   31.0526    2.8050 C.3       9 UNK         0.0261 
     56 CB         34.8403   30.2847    2.5991 C.3       9 UNK        -0.1959 
     57 C          32.5553   30.2398    3.6716 C.2       9 UNK         0.5033 
     58 O          32.1384   29.1654    3.2423 O.2       9 UNK        -0.5390 
     59 N          32.2009   30.7598    4.8532 N.am      10 UNK        -0.4215 
     60 CA         31.2438   30.1298    5.7655 C.3       10 UNK         0.0240 
     61 CB         30.8562   31.1231    6.8738 C.3       10 UNK        -0.1982 
     62 C          31.7961   28.8203    6.3529 C.2       10 UNK         0.4970 
     63 O          32.8180   28.8528    7.0427 O.2       10 UNK        -0.4916 
     64 N          31.1048   27.7137    6.0722 N.am      11 UNK        -0.4279 
     65 CA         31.4250   26.3547    6.5220 C.3       11 UNK         0.1003 
     66 C          30.1954   25.6913    7.1991 C.2       11 UNK         0.5709 
     67 N          30.4031   24.5853    7.9014 N.am      11 UNK        -0.7358 
     68 O          29.0596   26.1520    7.1000 O.2       11 UNK        -0.4999 
     69 C69        31.9625   25.4913    5.3487 C.3       12 UNK        -0.0954 
     70 S70        33.6604   25.9418    4.8693 S.3       12 UNK        -0.2268 
     71 C71        34.0560   24.6220    3.6670 C.3       12 UNK         0.0203 
     72 H72        31.3222   22.3751    4.2213 H         1 UNK         0.0888 
     73 H73        31.0348   23.6976    3.0795 H         1 UNK         0.0888 
     74 H74        29.7923   23.2626    4.2470 H         1 UNK         0.0888 
     75 H75        31.1854   22.5398    1.1073 H         1 UNK         0.3017 
     76 H76        29.6538   20.1034    0.6760 H         1 UNK         0.0873 
     77 H77        30.5652   20.1326   -1.5802 H         1 UNK         0.0745 
     78 H78        31.8231   20.2861   -0.4020 H         1 UNK         0.0745 
     79 H79        33.5502   21.7703   -0.4190 H         1 UNK         0.0705 
     80 H80        33.8845   22.9159   -1.6867 H         1 UNK         0.0705 
     81 H81        33.9024   22.7596    1.7266 H         1 UNK         0.1334 
     82 H82        32.9903   26.8981    2.4341 H         1 UNK         0.1417 
     83 H83        32.2749   25.1840   -1.4134 H         1 UNK         0.1562 
     84 H84        32.5935   27.7552   -0.9727 H         1 UNK         0.0748 
     85 H85        32.3057   28.3186    0.6546 H         1 UNK         0.0748 
     86 H86        30.4210   27.5686    2.0632 H         1 UNK         0.0940 
     87 H87        29.1866   26.4978    1.4818 H         1 UNK         0.0940 
     88 H88        27.9809   28.7067    0.6375 H         1 UNK         0.0703 
     89 H89        26.5895   28.0163    2.1815 H         1 UNK         0.3081 
     90 H90        26.8859   26.9756    5.5729 H         1 UNK         0.0719 
     91 H91        25.1430   29.0179    4.0933 H         1 UNK         0.0809 
     92 H92        24.7566   28.2351    5.6230 H         1 UNK         0.0809 
     93 H93        26.1231   29.3315    5.5170 H         1 UNK         0.0809 
     94 H94        25.8780   25.3773    4.4816 H         1 UNK         0.2990 
     95 H95        24.7153   24.1515    3.2018 H         1 UNK         0.0690 
     96 H96        22.6292   23.9680    1.8863 H         1 UNK         0.0788 
     97 H97        22.8006   25.6282    1.3151 H         1 UNK         0.0788 
     98 H98        22.5003   25.3053    3.0166 H         1 UNK         0.0788 
     99 H99        24.6612   24.2799    0.3768 H         1 UNK         0.2993 
    100 H100       26.3141   22.9436   -0.6705 H         1 UNK         0.0949 
    101 H101       27.6884   24.4696   -2.1511 H         1 UNK         0.0767 
    102 H102       26.3561   25.3361   -1.4019 H         1 UNK         0.0767 
    103 H103       27.9877   25.5294   -0.7762 H         1 UNK         0.0767 
    104 H104       28.9628   23.4265    0.5856 H         1 UNK         0.3013 
    105 H105       27.6366   30.3645    3.1522 H         1 UNK         0.3121 
    106 H106       29.8743   31.8504    3.8091 H         1 UNK         0.0774 
    107 H107       28.2288   33.4286    4.8388 H         1 UNK         0.0815 
    108 H108       26.9235   32.6575    3.9487 H         1 UNK         0.0815 
    109 H109       27.8182   31.7571    5.1759 H         1 UNK         0.0815 
    110 H110       28.0660   32.2257    0.8981 H         1 UNK         0.2987 
    111 H111       28.8196   34.9379    0.2563 H         1 UNK         0.0949 
    112 H112       28.0215   32.5844   -1.5471 H         1 UNK         0.0806 
    113 H113       26.9208   33.7859   -0.8693 H         1 UNK         0.0806 
    114 H114       28.1282   34.2656   -2.0495 H         1 UNK         0.0806 
    115 H115       30.5308   31.8828    0.2098 H         1 UNK         0.3010 
    116 H116       32.8339   33.0935   -1.2819 H         1 UNK         0.0829 
    117 H117       31.9802   31.1407   -2.4778 H         1 UNK         0.0813 
    118 H118       33.4853   30.6870   -1.6924 H         1 UNK         0.0813 
    119 H119       31.9447   30.1792   -1.0065 H         1 UNK         0.0813 
    120 H120       31.9858   30.7885    1.3909 H         1 UNK         0.3038 
    121 H121       33.7271   32.0085    3.2897 H         1 UNK         0.0769 
    122 H122       35.3004   30.0384    3.5568 H         1 UNK         0.0811 
    123 H123       35.5650   30.8715    2.0352 H         1 UNK         0.0811 
    124 H124       34.6795   29.3473    2.0646 H         1 UNK         0.0811 
    125 H125       32.6209   31.6252    5.1598 H         1 UNK         0.3204 
    126 H126       30.3417   29.9046    5.1938 H         1 UNK         0.0748 
    127 H127       30.1270   30.6801    7.5534 H         1 UNK         0.0771 
    128 H128       31.7193   31.4210    7.4706 H         1 UNK         0.0771 
    129 H129       30.4051   32.0252    6.4600 H         1 UNK         0.0771 
    130 H130       30.2585   27.7865    5.5074 H         1 UNK         0.2980 
    131 H131       32.1917   26.4055    7.2975 H         1 UNK         0.0545 
    132 H132       31.3268   24.1945    8.0013 H         1 UNK         0.3459 
    133 H133       29.6188   24.1378    8.3491 H         1 UNK         0.3459 
    134 H134       31.3122   25.5877    4.4777 H         1 UNK         0.0616 
    135 H135       31.9763   24.4342    5.6178 H         1 UNK         0.0616 
    136 H136       33.7292   23.6648    4.0757 H         1 UNK         0.0634 
    137 H137       35.1420   24.5638    3.5861 H         1 UNK         0.0634 
@<TRIPOS>BOND
     1    1    2 1    
     2    1   72 1    
     3    1   73 1    
     4    1   74 1    
     5    2    3 2    
     6    2    4 am   BACKBONE|DICT|INTERRES
     7    4    5 1    
     8    4   75 1    
     9    5    6 1    
    10    5   35 1    
    11    5   76 1    
    12    6    7 1    
    13    6   77 1    
    14    6   78 1    
    15    7    8 1    
    16    8    9 1    
    17    8   79 1    
    18    8   80 1    
    19    9   10 ar   
    20    9   14 ar   
    21   10   11 ar   
    22   10   81 1    
    23   11   12 ar   
    24   11   71 1    
    25   12   13 ar   
    26   12   82 1    
    27   13   14 ar   
    28   13   15 1    
    29   14   83 1    
    30   15   16 1    
    31   15   84 1    
    32   15   85 1    
    33   16   17 1    
    34   17   18 1    
    35   17   86 1    
    36   17   87 1    
    37   18   19 1    
    38   18   37 1    
    39   18   88 1    
    40   19   20 am   BACKBONE|DICT|INTERRES
    41   19   89 1    
    42   20   21 2    
    43   20   22 1    
    44   22   23 1    
    45   22   24 1    
    46   22   90 1    
    47   23   91 1    
    48   23   92 1    
    49   23   93 1    
    50   24   25 am   BACKBONE|DICT|INTERRES
    51   24   94 1    
    52   25   26 2    
    53   25   27 1    
    54   27   28 1    
    55   27   29 1    
    56   27   95 1    
    57   28   96 1    
    58   28   97 1    
    59   28   98 1    
    60   29   30 am   BACKBONE|DICT|INTERRES
    61   29   99 1    
    62   30   31 2    
    63   30   32 1    
    64   32   33 1    
    65   32   34 1    
    66   32  100 1    
    67   33  101 1    
    68   33  102 1    
    69   33  103 1    
    70   34   35 am   BACKBONE|DICT|INTERRES
    71   34  104 1    
    72   35   36 2    
    73   37   38 2    
    74   37   39 am   BACKBONE|DICT|INTERRES
    75   39   40 1    
    76   39  105 1    
    77   40   41 1    
    78   40   42 1    
    79   40  106 1    
    80   41  107 1    
    81   41  108 1    
    82   41  109 1    
    83   42   43 2    
    84   42   44 am   BACKBONE|DICT|INTERRES
    85   44   45 1    
    86   44  110 1    
    87   45   46 1    
    88   45   47 1    
    89   45  111 1    
    90   46  112 1    
    91   46  113 1    
    92   46  114 1    
    93   47   48 2    
    94   47   49 am   BACKBONE|DICT|INTERRES
    95   49   50 1    
    96   49  115 1    
    97   50   51 1    
    98   50   52 1    
    99   50  116 1    
   100   51  117 1    
   101   51  118 1    
   102   51  119 1    
   103   52   53 2    
   104   52   54 am   BACKBONE|DICT|INTERRES
   105   54   55 1    
   106   54  120 1    
   107   55   56 1    
   108   55   57 1    
   109   55  121 1    
   110   56  122 1    
   111   56  123 1    
   112   56  124 1    
   113   57   58 2    
   114   57   59 am   BACKBONE|DICT|INTERRES
   115   59   60 1    
   116   59  125 1    
   117   60   61 1    
   118   60   62 1    
   119   60  126 1    
   120   61  127 1    
   121   61  128 1    
   122   61  129 1    
   123   62   63 2    
   124   62   64 am   BACKBONE|DICT|INTERRES
   125   64   65 1    
   126   64  130 1    
   127   65   66 1    
   128   65   69 1    
   129   65  131 1    
   130   66   67 am   BACKBONE|DICT|INTERRES
   131   66   68 2    
   132   67  132 1    
   133   67  133 1    
   134   69   70 1    
   135   69  134 1    
   136   69  135 1    
   137   70   71 1    
   138   71  136 1    
   139   71  137 1    
@<TRIPOS>SUBSTRUCTURE
     1 UNK         1 GROUP             0       ****    0 ROOT    
