@<TRIPOS>MOLECULE
3R136
137   139    1
SMALL
USER_CHARGES


@<TRIPOS>ATOM
      1 CA         26.3083   23.7280    3.0923 C.3       0 UNK        -0.1979 
      2 C          27.3098   23.3858    2.0014 C.2       0 UNK         0.4864 
      3 O          27.7631   24.2876    1.2915 O.2       0 UNK        -0.5359 
      4 N          27.6283   22.0889    1.8492 N.am      1 UNK        -0.4318 
      5 CA         28.6156   21.5236    0.9111 C.3       1 UNK         0.0824 
      6 C6         30.0762   21.8976    1.3023 C.3       12 UNK        -0.0944 
      7 S7         30.7389   20.8267    2.6235 S.3       12 UNK        -0.2672 
      8 C8         30.0821   21.5717    4.1565 C.3       12 UNK         0.0333 
      9 C9         30.4934   23.0188    4.4236 C.ar      12 UNK        -0.0807 
     10 C10        31.7083   23.5482    3.9701 C.ar      12 UNK        -0.0894 
     11 C11        32.0604   24.8703    4.2565 C.ar      12 UNK        -0.0804 
     12 C12        31.1993   25.6648    5.0179 C.ar      12 UNK        -0.0824 
     13 C13        29.9892   25.1464    5.4867 C.ar      12 UNK        -0.0762 
     14 C14        29.6435   23.8266    5.1851 C.ar      12 UNK        -0.0782 
     15 C15        29.0570   25.9998    6.3327 C.3       12 UNK         0.0230 
     16 S16        27.6942   26.6858    5.3417 S.3       12 UNK        -0.2608 
     17 C17        28.5505   28.0026    4.4187 C.3       12 UNK        -0.0989 
     18 CA         28.8976   27.6133    2.9532 C.3       5 UNK         0.0716 
     19 N          27.7388   27.1906    2.1550 N.am      5 UNK        -0.4135 
     20 C          26.6856   27.9520    1.8205 C.2       4 UNK         0.5031 
     21 O          26.5268   29.1129    2.2022 O.2       4 UNK        -0.5229 
     22 CA         25.6662   27.3084    0.8571 C.3       4 UNK         0.0329 
     23 CB         24.6725   28.3285    0.2618 C.3       4 UNK        -0.2001 
     24 N          26.3164   26.5333   -0.2093 N.am      4 UNK        -0.4303 
     25 C          27.2247   26.9741   -1.0959 C.2       3 UNK         0.5044 
     26 O          27.5836   28.1476   -1.1794 O.2       3 UNK        -0.5152 
     27 CA         27.9013   25.9349   -2.0039 C.3       3 UNK         0.0319 
     28 CB         29.4262   25.9487   -1.7873 C.3       3 UNK        -0.2001 
     29 N          27.4167   24.5797   -1.7418 N.am      3 UNK        -0.4354 
     30 C          26.7645   23.7987   -2.6138 C.2       2 UNK         0.4964 
     31 O          26.4500   24.1630   -3.7479 O.2       2 UNK        -0.5047 
     32 CA         26.3735   22.3782   -2.1464 C.3       2 UNK         0.0288 
     33 CB         26.6321   21.3161   -3.2367 C.3       2 UNK        -0.2113 
     34 N          26.9713   21.9728   -0.8643 N.am      2 UNK        -0.4145 
     35 C          28.2745   21.8184   -0.5714 C.2       1 UNK         0.5006 
     36 O          29.1740   21.9203   -1.4073 O.2       1 UNK        -0.5103 
     37 C          29.7437   28.7006    2.2452 C.2       5 UNK         0.5055 
     38 O          30.3736   29.5145    2.9243 O.2       5 UNK        -0.5220 
     39 N          29.7420   28.6998    0.9005 N.am      6 UNK        -0.4450 
     40 CA         30.5145   29.5500   -0.0132 C.3       6 UNK         0.0367 
     41 CB         32.0136   29.2021    0.0680 C.3       6 UNK        -0.1929 
     42 C          30.2289   31.0479    0.1875 C.2       6 UNK         0.5070 
     43 O          29.2867   31.5714   -0.4056 O.2       6 UNK        -0.5237 
     44 N          31.0218   31.7045    1.0438 N.am      7 UNK        -0.4739 
     45 CA         30.8523   33.0976    1.4686 C.3       7 UNK         0.0276 
     46 CB         32.2175   33.6219    1.9493 C.3       7 UNK        -0.1927 
     47 C          29.7753   33.2753    2.5616 C.2       7 UNK         0.5013 
     48 O          29.6841   34.3600    3.1376 O.2       7 UNK        -0.5193 
     49 N          29.0151   32.2078    2.8507 N.am      8 UNK        -0.4253 
     50 CA         28.0844   32.0292    3.9703 C.3       8 UNK         0.0242 
     51 CB         26.9366   33.0614    3.9364 C.3       8 UNK        -0.2000 
     52 C          28.8318   31.9821    5.3169 C.2       8 UNK         0.4948 
     53 O          28.3278   32.4910    6.3200 O.2       8 UNK        -0.5275 
     54 N          30.0322   31.3874    5.3052 N.am      9 UNK        -0.4246 
     55 CA         30.9743   31.3394    6.4179 C.3       9 UNK         0.0261 
     56 CB         31.5456   32.7481    6.7128 C.3       9 UNK        -0.1959 
     57 C          32.0417   30.2892    6.0814 C.2       9 UNK         0.5033 
     58 O          31.7299   29.0985    6.0872 O.2       9 UNK        -0.5390 
     59 N          33.2716   30.7358    5.8014 N.am      10 UNK        -0.4215 
     60 CA         34.3890   29.8958    5.3760 C.3       10 UNK         0.0240 
     61 CB         35.7051   30.5758    5.7899 C.3       10 UNK        -0.1982 
     62 C          34.3621   29.6676    3.8569 C.2       10 UNK         0.4970 
     63 O          33.8435   30.5062    3.1146 O.2       10 UNK        -0.4916 
     64 N          34.9725   28.5571    3.4350 N.am      11 UNK        -0.4279 
     65 CA         35.1975   28.1956    2.0301 C.3       11 UNK         0.1003 
     66 C          36.6363   28.5696    1.5882 C.2       11 UNK         0.5709 
     67 N          36.8425   28.8284    0.3042 N.am      11 UNK        -0.7358 
     68 O          37.5717   28.5978    2.3870 O.2       11 UNK        -0.4999 
     69 C69        34.9130   26.6921    1.7781 C.3       12 UNK        -0.0954 
     70 S70        33.1836   26.2292    2.1339 S.3       12 UNK        -0.2268 
     71 C71        33.3794   25.4336    3.7566 C.3       12 UNK         0.0203 
     72 H72        25.9125   22.8370    3.5789 H         1 UNK         0.0888 
     73 H73        26.7854   24.3439    3.8521 H         1 UNK         0.0888 
     74 H74        25.4715   24.2870    2.6754 H         1 UNK         0.0888 
     75 H75        27.1850   21.4089    2.4516 H         1 UNK         0.3017 
     76 H76        28.5176   20.4394    0.9879 H         1 UNK         0.0873 
     77 H77        30.7650   21.7679    0.4665 H         1 UNK         0.0745 
     78 H78        30.1595   22.9484    1.5833 H         1 UNK         0.0745 
     79 H79        30.4218   20.9655    4.9970 H         1 UNK         0.0705 
     80 H80        28.9956   21.4854    4.1444 H         1 UNK         0.0705 
     81 H81        32.3858   22.9355    3.3921 H         1 UNK         0.1334 
     82 H82        31.4718   26.6868    5.2425 H         1 UNK         0.1417 
     83 H83        28.7082   23.4271    5.5535 H         1 UNK         0.1562 
     84 H84        29.6047   26.8064    6.8233 H         1 UNK         0.0748 
     85 H85        28.6352   25.3914    7.1341 H         1 UNK         0.0748 
     86 H86        29.4516   28.2795    4.9675 H         1 UNK         0.0940 
     87 H87        27.9124   28.8843    4.4413 H         1 UNK         0.0940 
     88 H88        29.5475   26.7386    2.9936 H         1 UNK         0.0703 
     89 H89        27.7741   26.2369    1.8046 H         1 UNK         0.3081 
     90 H90        25.0929   26.5969    1.4531 H         1 UNK         0.0719 
     91 H91        25.1832   29.1056   -0.3080 H         1 UNK         0.0809 
     92 H92        23.9546   27.8440   -0.3998 H         1 UNK         0.0809 
     93 H93        24.1035   28.8247    1.0490 H         1 UNK         0.0809 
     94 H94        26.1196   25.5428   -0.2087 H         1 UNK         0.2990 
     95 H95        27.6948   26.2281   -3.0350 H         1 UNK         0.0690 
     96 H96        29.9219   25.2233   -2.4329 H         1 UNK         0.0788 
     97 H97        29.6900   25.7096   -0.7558 H         1 UNK         0.0788 
     98 H98        29.8510   26.9264   -2.0181 H         1 UNK         0.0788 
     99 H99        27.6389   24.2054   -0.8252 H         1 UNK         0.2993 
    100 H100       25.2965   22.4138   -1.9753 H         1 UNK         0.0949 
    101 H101       27.6834   21.2745   -3.5229 H         1 UNK         0.0767 
    102 H102       26.3357   20.3223   -2.9010 H         1 UNK         0.0767 
    103 H103       26.0605   21.5339   -4.1399 H         1 UNK         0.0767 
    104 H104       26.3173   21.8622   -0.1015 H         1 UNK         0.3013 
    105 H105       29.0852   28.0866    0.4354 H         1 UNK         0.3121 
    106 H106       30.1767   29.3073   -1.0220 H         1 UNK         0.0774 
    107 H107       32.6076   29.8484   -0.5794 H         1 UNK         0.0815 
    108 H108       32.3924   29.3077    1.0834 H         1 UNK         0.0815 
    109 H109       32.1949   28.1738   -0.2449 H         1 UNK         0.0815 
    110 H110       31.7277   31.1702    1.5361 H         1 UNK         0.2987 
    111 H111       30.5382   33.6932    0.6088 H         1 UNK         0.0949 
    112 H112       32.9776   33.5199    1.1746 H         1 UNK         0.0806 
    113 H113       32.1655   34.6798    2.2103 H         1 UNK         0.0806 
    114 H114       32.5655   33.0839    2.8323 H         1 UNK         0.0806 
    115 H115       29.2244   31.3632    2.3341 H         1 UNK         0.3010 
    116 H116       27.6338   31.0475    3.8315 H         1 UNK         0.0829 
    117 H117       26.4501   33.0811    2.9613 H         1 UNK         0.0813 
    118 H118       26.1725   32.8144    4.6743 H         1 UNK         0.0813 
    119 H119       27.2857   34.0696    4.1604 H         1 UNK         0.0813 
    120 H120       30.3305   30.9042    4.4611 H         1 UNK         0.3038 
    121 H121       30.4472   30.9837    7.3054 H         1 UNK         0.0769 
    122 H122       32.3110   32.7126    7.4894 H         1 UNK         0.0811 
    123 H123       30.7683   33.4204    7.0757 H         1 UNK         0.0811 
    124 H124       31.9816   33.2084    5.8251 H         1 UNK         0.0811 
    125 H125       33.4224   31.7330    5.7692 H         1 UNK         0.3204 
    126 H126       34.3218   28.9285    5.8794 H         1 UNK         0.0748 
    127 H127       36.5666   29.9649    5.5162 H         1 UNK         0.0771 
    128 H128       35.8287   31.5460    5.3064 H         1 UNK         0.0771 
    129 H129       35.7496   30.7302    6.8682 H         1 UNK         0.0771 
    130 H130       35.4378   27.9694    4.1101 H         1 UNK         0.2980 
    131 H131       34.5222   28.7716    1.3994 H         1 UNK         0.0545 
    132 H132       37.7737   29.0614   -0.0037 H         1 UNK         0.3459 
    133 H133       36.0884   28.7965   -0.3638 H         1 UNK         0.3459 
    134 H134       35.5908   26.0660    2.3612 H         1 UNK         0.0616 
    135 H135       35.1001   26.4436    0.7318 H         1 UNK         0.0616 
    136 H136       34.1211   24.6367    3.6839 H         1 UNK         0.0634 
    137 H137       33.7699   26.1581    4.4724 H         1 UNK         0.0634 
@<TRIPOS>BOND
     1    1    2 1    
     2    1   72 1    
     3    1   73 1    
     4    1   74 1    
     5    2    3 2    
     6    2    4 am   BACKBONE|DICT|INTERRES
     7    4    5 1    
     8    4   75 1    
     9    5    6 1    
    10    5   35 1    
    11    5   76 1    
    12    6    7 1    
    13    6   77 1    
    14    6   78 1    
    15    7    8 1    
    16    8    9 1    
    17    8   79 1    
    18    8   80 1    
    19    9   10 ar   
    20    9   14 ar   
    21   10   11 ar   
    22   10   81 1    
    23   11   12 ar   
    24   11   71 1    
    25   12   13 ar   
    26   12   82 1    
    27   13   14 ar   
    28   13   15 1    
    29   14   83 1    
    30   15   16 1    
    31   15   84 1    
    32   15   85 1    
    33   16   17 1    
    34   17   18 1    
    35   17   86 1    
    36   17   87 1    
    37   18   19 1    
    38   18   37 1    
    39   18   88 1    
    40   19   20 am   BACKBONE|DICT|INTERRES
    41   19   89 1    
    42   20   21 2    
    43   20   22 1    
    44   22   23 1    
    45   22   24 1    
    46   22   90 1    
    47   23   91 1    
    48   23   92 1    
    49   23   93 1    
    50   24   25 am   BACKBONE|DICT|INTERRES
    51   24   94 1    
    52   25   26 2    
    53   25   27 1    
    54   27   28 1    
    55   27   29 1    
    56   27   95 1    
    57   28   96 1    
    58   28   97 1    
    59   28   98 1    
    60   29   30 am   BACKBONE|DICT|INTERRES
    61   29   99 1    
    62   30   31 2    
    63   30   32 1    
    64   32   33 1    
    65   32   34 1    
    66   32  100 1    
    67   33  101 1    
    68   33  102 1    
    69   33  103 1    
    70   34   35 am   BACKBONE|DICT|INTERRES
    71   34  104 1    
    72   35   36 2    
    73   37   38 2    
    74   37   39 am   BACKBONE|DICT|INTERRES
    75   39   40 1    
    76   39  105 1    
    77   40   41 1    
    78   40   42 1    
    79   40  106 1    
    80   41  107 1    
    81   41  108 1    
    82   41  109 1    
    83   42   43 2    
    84   42   44 am   BACKBONE|DICT|INTERRES
    85   44   45 1    
    86   44  110 1    
    87   45   46 1    
    88   45   47 1    
    89   45  111 1    
    90   46  112 1    
    91   46  113 1    
    92   46  114 1    
    93   47   48 2    
    94   47   49 am   BACKBONE|DICT|INTERRES
    95   49   50 1    
    96   49  115 1    
    97   50   51 1    
    98   50   52 1    
    99   50  116 1    
   100   51  117 1    
   101   51  118 1    
   102   51  119 1    
   103   52   53 2    
   104   52   54 am   BACKBONE|DICT|INTERRES
   105   54   55 1    
   106   54  120 1    
   107   55   56 1    
   108   55   57 1    
   109   55  121 1    
   110   56  122 1    
   111   56  123 1    
   112   56  124 1    
   113   57   58 2    
   114   57   59 am   BACKBONE|DICT|INTERRES
   115   59   60 1    
   116   59  125 1    
   117   60   61 1    
   118   60   62 1    
   119   60  126 1    
   120   61  127 1    
   121   61  128 1    
   122   61  129 1    
   123   62   63 2    
   124   62   64 am   BACKBONE|DICT|INTERRES
   125   64   65 1    
   126   64  130 1    
   127   65   66 1    
   128   65   69 1    
   129   65  131 1    
   130   66   67 am   BACKBONE|DICT|INTERRES
   131   66   68 2    
   132   67  132 1    
   133   67  133 1    
   134   69   70 1    
   135   69  134 1    
   136   69  135 1    
   137   70   71 1    
   138   71  136 1    
   139   71  137 1    
@<TRIPOS>SUBSTRUCTURE
     1 UNK         1 GROUP             0       ****    0 ROOT    
