@<TRIPOS>MOLECULE
3R136
137   139    1
SMALL
USER_CHARGES


@<TRIPOS>ATOM
      1 CA         34.2074   21.1800    1.6373 C.3       0 UNK        -0.1979 
      2 C          33.1347   22.2583    1.5899 C.2       0 UNK         0.4864 
      3 O          33.4196   23.3851    1.1826 O.2       0 UNK        -0.5359 
      4 N          31.9089   21.9219    2.0109 N.am      1 UNK        -0.4318 
      5 CA         30.7416   22.8089    2.0027 C.3       1 UNK         0.0824 
      6 C6         29.5637   22.2089    2.8112 C.3       12 UNK        -0.0944 
      7 S7         29.9672   22.0391    4.5822 S.3       12 UNK        -0.2672 
      8 C8         28.5849   22.9352    5.3753 C.3       12 UNK         0.0333 
      9 C9         28.4576   24.4110    4.9933 C.ar      12 UNK        -0.0807 
     10 C10        29.5713   25.1909    4.6628 C.ar      12 UNK        -0.0894 
     11 C11        29.4266   26.5362    4.3132 C.ar      12 UNK        -0.0804 
     12 C12        28.1565   27.1225    4.3388 C.ar      12 UNK        -0.0824 
     13 C13        27.0354   26.3627    4.6929 C.ar      12 UNK        -0.0762 
     14 C14        27.1936   25.0089    5.0057 C.ar      12 UNK        -0.0782 
     15 C15        25.6547   26.9994    4.7903 C.3       12 UNK         0.0230 
     16 S16        24.6878   26.8049    3.2575 S.3       12 UNK        -0.2608 
     17 C17        25.3115   28.1888    2.2480 C.3       12 UNK        -0.0989 
     18 CA         26.1875   27.6968    1.0608 C.3       5 UNK         0.0716 
     19 N          25.4551   26.9058    0.0624 N.am      5 UNK        -0.4135 
     20 C          24.4112   27.2988   -0.6863 C.2       4 UNK         0.5031 
     21 O          23.8255   28.3735   -0.5397 O.2       4 UNK        -0.5229 
     22 CA         23.9437   26.3482   -1.8064 C.3       4 UNK         0.0329 
     23 CB         23.5844   27.1182   -3.0915 C.3       4 UNK        -0.2001 
     24 N          24.9632   25.3476   -2.1323 N.am      4 UNK        -0.4303 
     25 C          24.8430   24.0296   -1.9353 C.2       3 UNK         0.5044 
     26 O          23.8266   23.4863   -1.5009 O.2       3 UNK        -0.5152 
     27 CA         26.0717   23.1623   -2.2680 C.3       3 UNK         0.0319 
     28 CB         25.9653   22.6152   -3.7009 C.3       3 UNK        -0.2001 
     29 N          27.3751   23.8216   -2.0990 N.am      3 UNK        -0.4354 
     30 C          27.8369   24.3418   -0.9533 C.2       2 UNK         0.4964 
     31 O          27.1560   24.4747    0.0660 O.2       2 UNK        -0.5047 
     32 CA         29.3012   24.8099   -0.9427 C.3       2 UNK         0.0288 
     33 CB         29.3935   26.3401   -1.0474 C.3       2 UNK        -0.2113 
     34 N          29.9555   24.3761    0.2908 N.am      2 UNK        -0.4145 
     35 C          30.2874   23.1076    0.5615 C.2       1 UNK         0.5006 
     36 O          30.2036   22.1855   -0.2553 O.2       1 UNK        -0.5103 
     37 C          27.0013   28.8428    0.4153 C.2       5 UNK         0.5055 
     38 O          26.9353   29.0776   -0.7941 O.2       5 UNK        -0.5220 
     39 N          27.8033   29.5085    1.2484 N.am      6 UNK        -0.4450 
     40 CA         28.7162   30.5979    0.9292 C.3       6 UNK         0.0367 
     41 CB         29.8981   30.0713    0.0907 C.3       6 UNK        -0.1929 
     42 C          29.1578   31.2206    2.2642 C.2       6 UNK         0.5070 
     43 O          28.6801   30.7874    3.3185 O.2       6 UNK        -0.5237 
     44 N          30.0329   32.2336    2.2001 N.am      7 UNK        -0.4739 
     45 CA         30.5657   32.9739    3.3516 C.3       7 UNK         0.0276 
     46 CB         31.5484   34.0430    2.8466 C.3       7 UNK        -0.1927 
     47 C          31.2584   32.0701    4.3875 C.2       7 UNK         0.5013 
     48 O          31.9627   31.1361    3.9993 O.2       7 UNK        -0.5193 
     49 N          31.0570   32.3771    5.6764 N.am      8 UNK        -0.4253 
     50 CA         31.5655   31.6139    6.8208 C.3       8 UNK         0.0242 
     51 CB         31.1135   32.2941    8.1232 C.3       8 UNK        -0.2000 
     52 C          33.0945   31.4478    6.8081 C.2       8 UNK         0.4948 
     53 O          33.8098   32.3907    6.4595 O.2       8 UNK        -0.5275 
     54 N          33.5565   30.2455    7.1787 N.am      9 UNK        -0.4246 
     55 CA         34.9457   29.7623    7.2180 C.3       9 UNK         0.0261 
     56 CB         35.8080   30.5870    8.1942 C.3       9 UNK        -0.1959 
     57 C          35.6273   29.6416    5.8408 C.2       9 UNK         0.5033 
     58 O          36.2886   28.6329    5.5915 O.2       9 UNK        -0.5390 
     59 N          35.4646   30.6528    4.9796 N.am      10 UNK        -0.4215 
     60 CA         36.0069   30.7052    3.6218 C.3       10 UNK         0.0240 
     61 CB         35.8961   32.1413    3.0812 C.3       10 UNK        -0.1982 
     62 C          35.3192   29.7076    2.6765 C.2       10 UNK         0.4970 
     63 O          36.0061   28.9340    2.0089 O.2       10 UNK        -0.4916 
     64 N          33.9811   29.7529    2.6430 N.am      11 UNK        -0.4279 
     65 CA         33.0932   28.9227    1.8179 C.3       11 UNK         0.1003 
     66 C          33.3099   29.0369    0.2764 C.2       11 UNK         0.5709 
     67 N          33.8339   30.1502   -0.2235 N.am      11 UNK        -0.7358 
     68 O          32.9764   28.1305   -0.4823 O.2       11 UNK        -0.4999 
     69 C69        32.9915   27.4662    2.3532 C.3       12 UNK        -0.0954 
     70 S70        31.2827   26.8286    2.2968 S.3       12 UNK        -0.2268 
     71 C71        30.6581   27.3420    3.9284 C.3       12 UNK         0.0203 
     72 H72        34.5983   20.9960    0.6369 H         1 UNK         0.0888 
     73 H73        35.0328   21.4998    2.2728 H         1 UNK         0.0888 
     74 H74        33.8227   20.2387    2.0295 H         1 UNK         0.0888 
     75 H75        31.7332   20.9797    2.3281 H         1 UNK         0.3017 
     76 H76        31.0408   23.7500    2.4682 H         1 UNK         0.0873 
     77 H77        28.6722   22.8309    2.7058 H         1 UNK         0.0745 
     78 H78        29.2889   21.2257    2.4240 H         1 UNK         0.0745 
     79 H79        27.6605   22.4066    5.1370 H         1 UNK         0.0705 
     80 H80        28.7072   22.8696    6.4570 H         1 UNK         0.0705 
     81 H81        30.5600   24.7539    4.6665 H         1 UNK         0.1334 
     82 H82        28.0451   28.1716    4.1044 H         1 UNK         0.1417 
     83 H83        26.3262   24.4224    5.2778 H         1 UNK         0.1562 
     84 H84        25.7337   28.0537    5.0597 H         1 UNK         0.0748 
     85 H85        25.0995   26.5318    5.6049 H         1 UNK         0.0748 
     86 H86        25.8621   28.8663    2.9008 H         1 UNK         0.0940 
     87 H87        24.4600   28.7714    1.8954 H         1 UNK         0.0940 
     88 H88        26.9352   27.0126    1.4666 H         1 UNK         0.0703 
     89 H89        25.8507   25.9874   -0.1092 H         1 UNK         0.3081 
     90 H90        23.0363   25.8645   -1.4394 H         1 UNK         0.0719 
     91 H91        24.4355   27.6841   -3.4723 H         1 UNK         0.0809 
     92 H92        23.2513   26.4414   -3.8786 H         1 UNK         0.0809 
     93 H93        22.7739   27.8263   -2.9140 H         1 UNK         0.0809 
     94 H94        25.8391   25.6982   -2.4940 H         1 UNK         0.2990 
     95 H95        26.0541   22.3135   -1.5810 H         1 UNK         0.0690 
     96 H96        26.7605   21.9007   -3.9145 H         1 UNK         0.0788 
     97 H97        26.0202   23.4130   -4.4428 H         1 UNK         0.0788 
     98 H98        25.0180   22.0950   -3.8518 H         1 UNK         0.0788 
     99 H99        27.9998   23.7751   -2.8918 H         1 UNK         0.2993 
    100 H100       29.8274   24.3680   -1.7919 H         1 UNK         0.0949 
    101 H101       28.8586   26.7137   -1.9216 H         1 UNK         0.0767 
    102 H102       28.9707   26.8264   -0.1692 H         1 UNK         0.0767 
    103 H103       30.4301   26.6678   -1.1353 H         1 UNK         0.0767 
    104 H104       30.0492   25.0727    1.0176 H         1 UNK         0.3013 
    105 H105       27.7855   29.3132    2.2423 H         1 UNK         0.3121 
    106 H106       28.1773   31.3629    0.3668 H         1 UNK         0.0774 
    107 H107       30.6853   30.8158   -0.0287 H         1 UNK         0.0815 
    108 H108       30.3379   29.1847    0.5445 H         1 UNK         0.0815 
    109 H109       29.5755   29.7919   -0.9121 H         1 UNK         0.0815 
    110 H110       30.3748   32.5169    1.2936 H         1 UNK         0.2987 
    111 H111       29.7224   33.4725    3.8342 H         1 UNK         0.0949 
    112 H112       31.9518   34.6271    3.6752 H         1 UNK         0.0806 
    113 H113       32.3947   33.5958    2.3232 H         1 UNK         0.0806 
    114 H114       31.0625   34.7426    2.1663 H         1 UNK         0.0806 
    115 H115       30.4961   33.1868    5.8966 H         1 UNK         0.3010 
    116 H116       31.1074   30.6238    6.7696 H         1 UNK         0.0829 
    117 H117       30.0268   32.3558    8.1850 H         1 UNK         0.0813 
    118 H118       31.4539   31.7350    8.9960 H         1 UNK         0.0813 
    119 H119       31.5141   33.3052    8.2087 H         1 UNK         0.0813 
    120 H120       32.8692   29.5460    7.4247 H         1 UNK         0.3038 
    121 H121       34.8863   28.7492    7.6197 H         1 UNK         0.0769 
    122 H122       35.9373   31.6166    7.8598 H         1 UNK         0.0811 
    123 H123       36.8040   30.1533    8.2926 H         1 UNK         0.0811 
    124 H124       35.3659   30.6113    9.1902 H         1 UNK         0.0811 
    125 H125       34.9012   31.4399    5.2965 H         1 UNK         0.3204 
    126 H126       37.0658   30.4421    3.6707 H         1 UNK         0.0748 
    127 H127       36.4679   32.8381    3.6944 H         1 UNK         0.0771 
    128 H128       36.2881   32.2086    2.0654 H         1 UNK         0.0771 
    129 H129       34.8623   32.4895    3.0588 H         1 UNK         0.0771 
    130 H130       33.4857   30.4129    3.2388 H         1 UNK         0.2980 
    131 H131       32.1239   29.3927    1.9771 H         1 UNK         0.0545 
    132 H132       33.9671   30.2262   -1.2193 H         1 UNK         0.3459 
    133 H133       34.1086   30.9054    0.3829 H         1 UNK         0.3459 
    134 H134       33.3404   27.4060    3.3851 H         1 UNK         0.0616 
    135 H135       33.6415   26.7918    1.7930 H         1 UNK         0.0616 
    136 H136       31.4275   27.1928    4.6871 H         1 UNK         0.0634 
    137 H137       30.4416   28.4117    3.9097 H         1 UNK         0.0634 
@<TRIPOS>BOND
     1    1    2 1    
     2    1   72 1    
     3    1   73 1    
     4    1   74 1    
     5    2    3 2    
     6    2    4 am   BACKBONE|DICT|INTERRES
     7    4    5 1    
     8    4   75 1    
     9    5    6 1    
    10    5   35 1    
    11    5   76 1    
    12    6    7 1    
    13    6   77 1    
    14    6   78 1    
    15    7    8 1    
    16    8    9 1    
    17    8   79 1    
    18    8   80 1    
    19    9   10 ar   
    20    9   14 ar   
    21   10   11 ar   
    22   10   81 1    
    23   11   12 ar   
    24   11   71 1    
    25   12   13 ar   
    26   12   82 1    
    27   13   14 ar   
    28   13   15 1    
    29   14   83 1    
    30   15   16 1    
    31   15   84 1    
    32   15   85 1    
    33   16   17 1    
    34   17   18 1    
    35   17   86 1    
    36   17   87 1    
    37   18   19 1    
    38   18   37 1    
    39   18   88 1    
    40   19   20 am   BACKBONE|DICT|INTERRES
    41   19   89 1    
    42   20   21 2    
    43   20   22 1    
    44   22   23 1    
    45   22   24 1    
    46   22   90 1    
    47   23   91 1    
    48   23   92 1    
    49   23   93 1    
    50   24   25 am   BACKBONE|DICT|INTERRES
    51   24   94 1    
    52   25   26 2    
    53   25   27 1    
    54   27   28 1    
    55   27   29 1    
    56   27   95 1    
    57   28   96 1    
    58   28   97 1    
    59   28   98 1    
    60   29   30 am   BACKBONE|DICT|INTERRES
    61   29   99 1    
    62   30   31 2    
    63   30   32 1    
    64   32   33 1    
    65   32   34 1    
    66   32  100 1    
    67   33  101 1    
    68   33  102 1    
    69   33  103 1    
    70   34   35 am   BACKBONE|DICT|INTERRES
    71   34  104 1    
    72   35   36 2    
    73   37   38 2    
    74   37   39 am   BACKBONE|DICT|INTERRES
    75   39   40 1    
    76   39  105 1    
    77   40   41 1    
    78   40   42 1    
    79   40  106 1    
    80   41  107 1    
    81   41  108 1    
    82   41  109 1    
    83   42   43 2    
    84   42   44 am   BACKBONE|DICT|INTERRES
    85   44   45 1    
    86   44  110 1    
    87   45   46 1    
    88   45   47 1    
    89   45  111 1    
    90   46  112 1    
    91   46  113 1    
    92   46  114 1    
    93   47   48 2    
    94   47   49 am   BACKBONE|DICT|INTERRES
    95   49   50 1    
    96   49  115 1    
    97   50   51 1    
    98   50   52 1    
    99   50  116 1    
   100   51  117 1    
   101   51  118 1    
   102   51  119 1    
   103   52   53 2    
   104   52   54 am   BACKBONE|DICT|INTERRES
   105   54   55 1    
   106   54  120 1    
   107   55   56 1    
   108   55   57 1    
   109   55  121 1    
   110   56  122 1    
   111   56  123 1    
   112   56  124 1    
   113   57   58 2    
   114   57   59 am   BACKBONE|DICT|INTERRES
   115   59   60 1    
   116   59  125 1    
   117   60   61 1    
   118   60   62 1    
   119   60  126 1    
   120   61  127 1    
   121   61  128 1    
   122   61  129 1    
   123   62   63 2    
   124   62   64 am   BACKBONE|DICT|INTERRES
   125   64   65 1    
   126   64  130 1    
   127   65   66 1    
   128   65   69 1    
   129   65  131 1    
   130   66   67 am   BACKBONE|DICT|INTERRES
   131   66   68 2    
   132   67  132 1    
   133   67  133 1    
   134   69   70 1    
   135   69  134 1    
   136   69  135 1    
   137   70   71 1    
   138   71  136 1    
   139   71  137 1    
@<TRIPOS>SUBSTRUCTURE
     1 UNK         1 GROUP             0       ****    0 ROOT    
