@<TRIPOS>MOLECULE
3R136
137   139    1
SMALL
USER_CHARGES


@<TRIPOS>ATOM
      1 CA         27.6284   21.4565    2.0632 C.3       0 UNK        -0.1979 
      2 C          27.7506   22.5971    1.0654 C.2       0 UNK         0.4864 
      3 O          27.5116   23.7515    1.4247 O.2       0 UNK        -0.5359 
      4 N          28.0959   22.2728   -0.1897 N.am      1 UNK        -0.4318 
      5 CA         28.3349   23.2054   -1.3032 C.3       1 UNK         0.0824 
      6 C6         29.6432   24.0194   -1.1239 C.3       12 UNK        -0.0944 
      7 S7         31.0896   22.9079   -1.1432 S.3       12 UNK        -0.2672 
      8 C8         32.4137   24.0212   -0.5707 C.3       12 UNK         0.0333 
      9 C9         32.4949   24.2655    0.9384 C.ar      12 UNK        -0.0807 
     10 C10        33.4241   25.2092    1.3863 C.ar      12 UNK        -0.0894 
     11 C11        33.5747   25.4791    2.7469 C.ar      12 UNK        -0.0804 
     12 C12        32.7947   24.7885    3.6744 C.ar      12 UNK        -0.0824 
     13 C13        31.8608   23.8393    3.2516 C.ar      12 UNK        -0.0762 
     14 C14        31.7149   23.5787    1.8835 C.ar      12 UNK        -0.0782 
     15 C15        31.0194   23.0990    4.2850 C.3       12 UNK         0.0230 
     16 S16        29.3204   23.7494    4.4214 S.3       12 UNK        -0.2608 
     17 C17        29.5884   25.5404    4.6497 C.3       12 UNK        -0.0989 
     18 CA         29.4036   26.3037    3.3112 C.3       5 UNK         0.0716 
     19 N          28.0219   26.2371    2.8041 N.am      5 UNK        -0.4135 
     20 C          26.9675   26.9221    3.2783 C.2       4 UNK         0.5031 
     21 O          27.0048   27.6477    4.2728 O.2       4 UNK        -0.5229 
     22 CA         25.6469   26.8149    2.5082 C.3       4 UNK         0.0329 
     23 CB         25.6752   27.7032    1.2520 C.3       4 UNK        -0.2001 
     24 N          25.3258   25.4410    2.1250 N.am      4 UNK        -0.4303 
     25 C          24.1172   24.8829    2.2652 C.2       3 UNK         0.5044 
     26 O          23.1628   25.4342    2.8188 O.2       3 UNK        -0.5152 
     27 CA         23.9436   23.4831    1.6445 C.3       3 UNK         0.0319 
     28 CB         22.5058   22.9368    1.7745 C.3       3 UNK        -0.2001 
     29 N          24.3859   23.4315    0.2445 N.am      3 UNK        -0.4354 
     30 C          23.9707   24.1912   -0.7844 C.2       2 UNK         0.4964 
     31 O          23.0946   25.0532   -0.6998 O.2       2 UNK        -0.5047 
     32 CA         24.6405   23.9152   -2.1476 C.3       2 UNK         0.0288 
     33 CB         24.5584   25.1125   -3.1207 C.3       2 UNK        -0.2113 
     34 N          26.0158   23.4120   -2.0131 N.am      2 UNK        -0.4145 
     35 C          27.0921   24.0813   -1.5676 C.2       1 UNK         0.5006 
     36 O          27.1100   25.2866   -1.3096 O.2       1 UNK        -0.5103 
     37 C          29.9328   27.7575    3.3516 C.2       5 UNK         0.5055 
     38 O          30.4527   28.2148    4.3733 O.2       5 UNK        -0.5220 
     39 N          29.7344   28.4684    2.2337 N.am      6 UNK        -0.4450 
     40 CA         29.9128   29.9143    2.1069 C.3       6 UNK         0.0367 
     41 CB         28.5238   30.5660    1.9675 C.3       6 UNK        -0.1929 
     42 C          30.8443   30.2783    0.9400 C.2       6 UNK         0.5070 
     43 O          30.6925   31.3516    0.3553 O.2       6 UNK        -0.5237 
     44 N          31.8039   29.3962    0.6192 N.am      7 UNK        -0.4739 
     45 CA         32.7944   29.5968   -0.4496 C.3       7 UNK         0.0276 
     46 CB         33.6108   28.3113   -0.6501 C.3       7 UNK        -0.1927 
     47 C          33.7253   30.7998   -0.2055 C.2       7 UNK         0.5013 
     48 O          34.1363   31.4515   -1.1661 O.2       7 UNK        -0.5193 
     49 N          33.9940   31.0943    1.0719 N.am      8 UNK        -0.4253 
     50 CA         34.6175   32.3273    1.5412 C.3       8 UNK         0.0242 
     51 CB         36.0486   32.0454    2.0341 C.3       8 UNK        -0.2000 
     52 C          33.7022   32.9330    2.6140 C.2       8 UNK         0.4948 
     53 O          34.0475   32.9461    3.7969 O.2       8 UNK        -0.5275 
     54 N          32.5174   33.3779    2.1714 N.am      9 UNK        -0.4246 
     55 CA         31.4434   34.0608    2.9081 C.3       9 UNK         0.0261 
     56 CB         31.9322   35.3882    3.5210 C.3       9 UNK        -0.1959 
     57 C          30.7144   33.2031    3.9574 C.2       9 UNK         0.5033 
     58 O          29.4838   33.1779    3.9518 O.2       9 UNK        -0.5390 
     59 N          31.4646   32.5260    4.8309 N.am      10 UNK        -0.4215 
     60 CA         30.9663   31.6762    5.9135 C.3       10 UNK         0.0240 
     61 CB         30.2964   32.5259    7.0172 C.3       10 UNK        -0.1982 
     62 C          32.1284   30.8275    6.4448 C.2       10 UNK         0.4970 
     63 O          32.4826   30.9277    7.6212 O.2       10 UNK        -0.4916 
     64 N          32.7378   30.0447    5.5495 N.am      11 UNK        -0.4279 
     65 CA         33.8799   29.1723    5.8536 C.3       11 UNK         0.1003 
     66 C          33.5051   27.8456    6.5736 C.2       11 UNK         0.5709 
     67 N          32.2569   27.3969    6.5257 N.am      11 UNK        -0.7358 
     68 O          34.3602   27.2256    7.2012 O.2       11 UNK        -0.4999 
     69 C69        34.7606   28.9445    4.6007 C.3       12 UNK        -0.0954 
     70 S70        33.8640   28.1768    3.2091 S.3       12 UNK        -0.2268 
     71 C71        34.5843   26.5081    3.2222 C.3       12 UNK         0.0203 
     72 H72        27.4206   20.5079    1.5686 H         1 UNK         0.0888 
     73 H73        28.5548   21.3544    2.6272 H         1 UNK         0.0888 
     74 H74        26.8224   21.6538    2.7692 H         1 UNK         0.0888 
     75 H75        28.2693   21.3012   -0.4077 H         1 UNK         0.3017 
     76 H76        28.4585   22.5931   -2.1986 H         1 UNK         0.0873 
     77 H77        29.6278   24.5890   -0.1928 H         1 UNK         0.0745 
     78 H78        29.7633   24.7439   -1.9316 H         1 UNK         0.0745 
     79 H79        33.3649   23.5965   -0.8945 H         1 UNK         0.0705 
     80 H80        32.3131   24.9759   -1.0891 H         1 UNK         0.0705 
     81 H81        34.0420   25.7332    0.6707 H         1 UNK         0.1334 
     82 H82        32.9130   24.9971    4.7292 H         1 UNK         0.1417 
     83 H83        30.9905   22.8410    1.5697 H         1 UNK         0.1562 
     84 H84        31.4932   23.1451    5.2668 H         1 UNK         0.0748 
     85 H85        30.9706   22.0410    4.0235 H         1 UNK         0.0748 
     86 H86        30.5830   25.6963    5.0654 H         1 UNK         0.0940 
     87 H87        28.8913   25.9109    5.4028 H         1 UNK         0.0940 
     88 H88        30.0156   25.8083    2.5573 H         1 UNK         0.0703 
     89 H89        27.8750   25.5706    2.0520 H         1 UNK         0.3081 
     90 H90        24.8734   27.2054    3.1730 H         1 UNK         0.0719 
     91 H91        25.9108   28.7369    1.5078 H         1 UNK         0.0809 
     92 H92        26.4202   27.3623    0.5318 H         1 UNK         0.0809 
     93 H93        24.7072   27.7053    0.7503 H         1 UNK         0.0809 
     94 H94        26.0738   24.8837    1.7158 H         1 UNK         0.2990 
     95 H95        24.6007   22.8170    2.2053 H         1 UNK         0.0690 
     96 H96        22.4258   21.9296    1.3658 H         1 UNK         0.0788 
     97 H97        21.7842   23.5678    1.2543 H         1 UNK         0.0788 
     98 H98        22.1998   22.8866    2.8202 H         1 UNK         0.0788 
     99 H99        25.1211   22.7680    0.0519 H         1 UNK         0.2993 
    100 H100       24.0671   23.1009   -2.5936 H         1 UNK         0.0949 
    101 H101       25.0568   24.8928   -4.0648 H         1 UNK         0.0767 
    102 H102       23.5205   25.3550   -3.3524 H         1 UNK         0.0767 
    103 H103       25.0116   26.0111   -2.7012 H         1 UNK         0.0767 
    104 H104       26.1272   22.4238   -2.1970 H         1 UNK         0.3013 
    105 H105       29.3286   28.0019    1.4342 H         1 UNK         0.3121 
    106 H106       30.3842   30.3166    3.0046 H         1 UNK         0.0774 
    107 H107       28.0083   30.2272    1.0685 H         1 UNK         0.0815 
    108 H108       27.8926   30.3346    2.8259 H         1 UNK         0.0815 
    109 H109       28.5981   31.6524    1.9096 H         1 UNK         0.0815 
    110 H110       31.8766   28.5450    1.1590 H         1 UNK         0.2987 
    111 H111       32.2440   29.7967   -1.3717 H         1 UNK         0.0949 
    112 H112       32.9652   27.4593   -0.8618 H         1 UNK         0.0806 
    113 H113       34.2956   28.4147   -1.4929 H         1 UNK         0.0806 
    114 H114       34.2129   28.0752    0.2271 H         1 UNK         0.0806 
    115 H115       33.6174   30.4852    1.7851 H         1 UNK         0.3010 
    116 H116       34.6816   33.0580    0.7316 H         1 UNK         0.0829 
    117 H117       36.0708   31.3173    2.8419 H         1 UNK         0.0813 
    118 H118       36.5180   32.9573    2.4051 H         1 UNK         0.0813 
    119 H119       36.6736   31.6641    1.2266 H         1 UNK         0.0813 
    120 H120       32.3100   33.2220    1.1929 H         1 UNK         0.3038 
    121 H121       30.6979   34.3128    2.1518 H         1 UNK         0.0769 
    122 H122       32.3575   36.0428    2.7604 H         1 UNK         0.0811 
    123 H123       32.6896   35.2316    4.2897 H         1 UNK         0.0811 
    124 H124       31.1067   35.9278    3.9872 H         1 UNK         0.0811 
    125 H125       32.4778   32.6021    4.7359 H         1 UNK         0.3204 
    126 H126       30.2233   30.9869    5.5062 H         1 UNK         0.0748 
    127 H127       30.9840   33.2677    7.4252 H         1 UNK         0.0771 
    128 H128       29.4189   33.0536    6.6442 H         1 UNK         0.0771 
    129 H129       29.9609   31.8986    7.8441 H         1 UNK         0.0771 
    130 H130       32.3463   29.9477    4.6248 H         1 UNK         0.2980 
    131 H131       34.5100   29.7106    6.5645 H         1 UNK         0.0545 
    132 H132       32.0170   26.5550    7.0219 H         1 UNK         0.3459 
    133 H133       31.5727   27.8551    5.9317 H         1 UNK         0.3459 
    134 H134       35.6497   28.3631    4.8505 H         1 UNK         0.0616 
    135 H135       35.1349   29.9075    4.2590 H         1 UNK         0.0616 
    136 H136       34.9186   26.2491    4.2279 H         1 UNK         0.0634 
    137 H137       35.4724   26.4944    2.5888 H         1 UNK         0.0634 
@<TRIPOS>BOND
     1    1    2 1    
     2    1   72 1    
     3    1   73 1    
     4    1   74 1    
     5    2    3 2    
     6    2    4 am   BACKBONE|DICT|INTERRES
     7    4    5 1    
     8    4   75 1    
     9    5    6 1    
    10    5   35 1    
    11    5   76 1    
    12    6    7 1    
    13    6   77 1    
    14    6   78 1    
    15    7    8 1    
    16    8    9 1    
    17    8   79 1    
    18    8   80 1    
    19    9   10 ar   
    20    9   14 ar   
    21   10   11 ar   
    22   10   81 1    
    23   11   12 ar   
    24   11   71 1    
    25   12   13 ar   
    26   12   82 1    
    27   13   14 ar   
    28   13   15 1    
    29   14   83 1    
    30   15   16 1    
    31   15   84 1    
    32   15   85 1    
    33   16   17 1    
    34   17   18 1    
    35   17   86 1    
    36   17   87 1    
    37   18   19 1    
    38   18   37 1    
    39   18   88 1    
    40   19   20 am   BACKBONE|DICT|INTERRES
    41   19   89 1    
    42   20   21 2    
    43   20   22 1    
    44   22   23 1    
    45   22   24 1    
    46   22   90 1    
    47   23   91 1    
    48   23   92 1    
    49   23   93 1    
    50   24   25 am   BACKBONE|DICT|INTERRES
    51   24   94 1    
    52   25   26 2    
    53   25   27 1    
    54   27   28 1    
    55   27   29 1    
    56   27   95 1    
    57   28   96 1    
    58   28   97 1    
    59   28   98 1    
    60   29   30 am   BACKBONE|DICT|INTERRES
    61   29   99 1    
    62   30   31 2    
    63   30   32 1    
    64   32   33 1    
    65   32   34 1    
    66   32  100 1    
    67   33  101 1    
    68   33  102 1    
    69   33  103 1    
    70   34   35 am   BACKBONE|DICT|INTERRES
    71   34  104 1    
    72   35   36 2    
    73   37   38 2    
    74   37   39 am   BACKBONE|DICT|INTERRES
    75   39   40 1    
    76   39  105 1    
    77   40   41 1    
    78   40   42 1    
    79   40  106 1    
    80   41  107 1    
    81   41  108 1    
    82   41  109 1    
    83   42   43 2    
    84   42   44 am   BACKBONE|DICT|INTERRES
    85   44   45 1    
    86   44  110 1    
    87   45   46 1    
    88   45   47 1    
    89   45  111 1    
    90   46  112 1    
    91   46  113 1    
    92   46  114 1    
    93   47   48 2    
    94   47   49 am   BACKBONE|DICT|INTERRES
    95   49   50 1    
    96   49  115 1    
    97   50   51 1    
    98   50   52 1    
    99   50  116 1    
   100   51  117 1    
   101   51  118 1    
   102   51  119 1    
   103   52   53 2    
   104   52   54 am   BACKBONE|DICT|INTERRES
   105   54   55 1    
   106   54  120 1    
   107   55   56 1    
   108   55   57 1    
   109   55  121 1    
   110   56  122 1    
   111   56  123 1    
   112   56  124 1    
   113   57   58 2    
   114   57   59 am   BACKBONE|DICT|INTERRES
   115   59   60 1    
   116   59  125 1    
   117   60   61 1    
   118   60   62 1    
   119   60  126 1    
   120   61  127 1    
   121   61  128 1    
   122   61  129 1    
   123   62   63 2    
   124   62   64 am   BACKBONE|DICT|INTERRES
   125   64   65 1    
   126   64  130 1    
   127   65   66 1    
   128   65   69 1    
   129   65  131 1    
   130   66   67 am   BACKBONE|DICT|INTERRES
   131   66   68 2    
   132   67  132 1    
   133   67  133 1    
   134   69   70 1    
   135   69  134 1    
   136   69  135 1    
   137   70   71 1    
   138   71  136 1    
   139   71  137 1    
@<TRIPOS>SUBSTRUCTURE
     1 UNK         1 GROUP             0       ****    0 ROOT    
