@<TRIPOS>MOLECULE
3R136
137   139    1
SMALL
USER_CHARGES


@<TRIPOS>ATOM
      1 CA         31.3839   21.5929   -4.9177 C.3       0 UNK        -0.1979 
      2 C          30.9821   22.6159   -3.8651 C.2       0 UNK         0.4864 
      3 O          31.2876   23.8001   -4.0155 O.2       0 UNK        -0.5359 
      4 N          30.3076   22.1679   -2.7981 N.am      1 UNK        -0.4318 
      5 CA         29.7843   23.0185   -1.7259 C.3       1 UNK         0.0824 
      6 C6         29.4548   22.1804   -0.4617 C.3       12 UNK        -0.0944 
      7 S7         29.2337   23.2092    1.0330 S.3       12 UNK        -0.2672 
      8 C8         30.7079   22.7683    2.0014 C.3       12 UNK         0.0333 
      9 C9         30.8634   23.6675    3.2196 C.ar      12 UNK        -0.0807 
     10 C10        31.9949   24.4777    3.3580 C.ar      12 UNK        -0.0894 
     11 C11        32.1557   25.2854    4.4876 C.ar      12 UNK        -0.0804 
     12 C12        31.1649   25.2944    5.4741 C.ar      12 UNK        -0.0824 
     13 C13        30.0236   24.4976    5.3431 C.ar      12 UNK        -0.0762 
     14 C14        29.8864   23.6750    4.2207 C.ar      12 UNK        -0.0782 
     15 C15        28.9550   24.5064    6.4288 C.3       12 UNK         0.0230 
     16 S16        27.3310   25.0645    5.8176 S.3       12 UNK        -0.2608 
     17 C17        27.6750   26.7803    5.2912 C.3       12 UNK        -0.0989 
     18 CA         27.5638   26.9576    3.7501 C.3       5 UNK         0.0716 
     19 N          26.2768   26.5252    3.1813 N.am      5 UNK        -0.4135 
     20 C          25.0483   26.9645    3.4979 C.2       4 UNK         0.5031 
     21 O          24.8301   27.8311    4.3447 O.2       4 UNK        -0.5229 
     22 CA         23.8591   26.3821    2.7041 C.3       4 UNK         0.0329 
     23 CB         23.0539   27.5055    2.0270 C.3       4 UNK        -0.2001 
     24 N          24.2643   25.4204    1.6748 N.am      4 UNK        -0.4303 
     25 C          24.5634   24.1322    1.8760 C.2       3 UNK         0.5044 
     26 O          24.4551   23.5697    2.9649 O.2       3 UNK        -0.5152 
     27 CA         25.1342   23.3518    0.6778 C.3       3 UNK         0.0319 
     28 CB         24.0108   22.7388   -0.1804 C.3       3 UNK        -0.2001 
     29 N          26.0960   24.1127   -0.1387 N.am      3 UNK        -0.4354 
     30 C          25.8838   25.1596   -0.9549 C.2       2 UNK         0.4964 
     31 O          24.7804   25.6806   -1.1178 O.2       2 UNK        -0.5047 
     32 CA         27.1065   25.7764   -1.6661 C.3       2 UNK         0.0288 
     33 CB         27.4011   27.1734   -1.0942 C.3       2 UNK        -0.2113 
     34 N          28.3212   24.9661   -1.5527 N.am      2 UNK        -0.4145 
     35 C          28.5508   23.8172   -2.2018 C.2       1 UNK         0.5006 
     36 O          27.8057   23.3582   -3.0720 O.2       1 UNK        -0.5103 
     37 C          27.9839   28.3736    3.2909 C.2       5 UNK         0.5055 
     38 O          28.9969   28.8874    3.7635 O.2       5 UNK        -0.5220 
     39 N          27.2561   28.9692    2.3349 N.am      6 UNK        -0.4450 
     40 CA         27.5556   30.2606    1.7090 C.3       6 UNK         0.0367 
     41 CB         26.2365   30.8883    1.2200 C.3       6 UNK        -0.1929 
     42 C          28.5963   30.1087    0.5803 C.2       6 UNK         0.5070 
     43 O          28.3530   30.5404   -0.5477 O.2       6 UNK        -0.5237 
     44 N          29.7160   29.4501    0.8988 N.am      7 UNK        -0.4739 
     45 CA         30.8219   29.1554   -0.0078 C.3       7 UNK         0.0276 
     46 CB         31.3343   27.7299    0.2885 C.3       7 UNK        -0.1927 
     47 C          31.8885   30.2589    0.1121 C.2       7 UNK         0.5013 
     48 O          31.6295   31.3918   -0.2990 O.2       7 UNK        -0.5193 
     49 N          33.0655   29.9246    0.6570 N.am      8 UNK        -0.4253 
     50 CA         34.1504   30.8683    0.9351 C.3       8 UNK         0.0242 
     51 CB         35.4425   30.0734    1.1906 C.3       8 UNK        -0.2000 
     52 C          33.8239   31.7560    2.1469 C.2       8 UNK         0.4948 
     53 O          33.0171   31.3673    2.9927 O.2       8 UNK        -0.5275 
     54 N          34.5086   32.9034    2.2568 N.am      9 UNK        -0.4246 
     55 CA         34.3756   33.8483    3.3764 C.3       9 UNK         0.0261 
     56 CB         35.2528   35.0827    3.1125 C.3       9 UNK        -0.1959 
     57 C          34.7032   33.2374    4.7536 C.2       9 UNK         0.5033 
     58 O          34.1122   33.6436    5.7551 O.2       9 UNK        -0.5390 
     59 N          35.6038   32.2448    4.7702 N.am      10 UNK        -0.4215 
     60 CA         35.9591   31.4433    5.9424 C.3       10 UNK         0.0240 
     61 CB         37.2216   30.6259    5.6212 C.3       10 UNK        -0.1982 
     62 C          34.8321   30.5127    6.4333 C.2       10 UNK         0.4970 
     63 O          34.8802   30.0918    7.5899 O.2       10 UNK        -0.4916 
     64 N          33.8554   30.1971    5.5707 N.am      11 UNK        -0.4279 
     65 CA         32.7019   29.3454    5.8994 C.3       11 UNK         0.1003 
     66 C          31.5804   30.0766    6.6926 C.2       11 UNK         0.5709 
     67 N          31.6188   31.3964    6.8441 N.am      11 UNK        -0.7358 
     68 O          30.6702   29.4288    7.2041 O.2       11 UNK        -0.4999 
     69 C69        32.1267   28.6324    4.6471 C.3       12 UNK        -0.0954 
     70 S70        33.3690   27.6724    3.7175 S.3       12 UNK        -0.2268 
     71 C71        33.4194   26.1169    4.6595 C.3       12 UNK         0.0203 
     72 H72        31.0637   20.5858   -4.6512 H         1 UNK         0.0888 
     73 H73        30.9363   21.8478   -5.8780 H         1 UNK         0.0888 
     74 H74        32.4669   21.5834   -5.0378 H         1 UNK         0.0888 
     75 H75        30.0564   21.1910   -2.7467 H         1 UNK         0.3017 
     76 H76        30.5721   23.7308   -1.4683 H         1 UNK         0.0873 
     77 H77        28.5553   21.5795   -0.6120 H         1 UNK         0.0745 
     78 H78        30.2562   21.4642   -0.2720 H         1 UNK         0.0745 
     79 H79        31.5887   22.8340    1.3604 H         1 UNK         0.0705 
     80 H80        30.6318   21.7292    2.3250 H         1 UNK         0.0705 
     81 H81        32.7608   24.4725    2.5944 H         1 UNK         0.1334 
     82 H82        31.2869   25.9194    6.3484 H         1 UNK         0.1417 
     83 H83        29.0097   23.0492    4.1195 H         1 UNK         0.1562 
     84 H84        29.2527   25.1383    7.2671 H         1 UNK         0.0748 
     85 H85        28.8508   23.4972    6.8295 H         1 UNK         0.0748 
     86 H86        28.6699   27.0656    5.6390 H         1 UNK         0.0940 
     87 H87        26.9826   27.4458    5.8088 H         1 UNK         0.0940 
     88 H88        28.3074   26.2945    3.3040 H         1 UNK         0.0703 
     89 H89        26.3373   25.7969    2.4861 H         1 UNK         0.3081 
     90 H90        23.2084   25.8777    3.4214 H         1 UNK         0.0719 
     91 H91        22.1849   27.1082    1.5020 H         1 UNK         0.0809 
     92 H92        23.6572   28.0578    1.3053 H         1 UNK         0.0809 
     93 H93        22.6837   28.2232    2.7606 H         1 UNK         0.0809 
     94 H94        24.3526   25.7675    0.7227 H         1 UNK         0.2990 
     95 H95        25.7080   22.5232    1.0967 H         1 UNK         0.0690 
     96 H96        24.4175   22.1415   -0.9965 H         1 UNK         0.0788 
     97 H97        23.3614   23.5002   -0.6131 H         1 UNK         0.0788 
     98 H98        23.3801   22.0815    0.4197 H         1 UNK         0.0788 
     99 H99        27.0545   23.8053   -0.0398 H         1 UNK         0.2993 
    100 H100       26.8513   25.8773   -2.7233 H         1 UNK         0.0949 
    101 H101       26.5319   27.8277   -1.1782 H         1 UNK         0.0767 
    102 H102       27.6763   27.1287   -0.0400 H         1 UNK         0.0767 
    103 H103       28.2167   27.6582   -1.6315 H         1 UNK         0.0767 
    104 H104       28.9819   25.2503   -0.8437 H         1 UNK         0.3013 
    105 H105       26.4521   28.4763    1.9786 H         1 UNK         0.3121 
    106 H106       27.9862   30.9299    2.4571 H         1 UNK         0.0774 
    107 H107       26.4092   31.8773    0.7934 H         1 UNK         0.0815 
    108 H108       25.7596   30.2797    0.4506 H         1 UNK         0.0815 
    109 H109       25.5276   31.0107    2.0392 H         1 UNK         0.0815 
    110 H110       29.8352   29.1808    1.8696 H         1 UNK         0.2987 
    111 H111       30.4686   29.1710   -1.0414 H         1 UNK         0.0949 
    112 H112       30.5585   26.9910    0.0886 H         1 UNK         0.0806 
    113 H113       32.1859   27.4725   -0.3429 H         1 UNK         0.0806 
    114 H114       31.6343   27.6069    1.3291 H         1 UNK         0.0806 
    115 H115       33.1769   28.9905    1.0231 H         1 UNK         0.3010 
    116 H116       34.2916   31.5066    0.0600 H         1 UNK         0.0829 
    117 H117       35.6872   29.4317    0.3440 H         1 UNK         0.0813 
    118 H118       36.2928   30.7392    1.3430 H         1 UNK         0.0813 
    119 H119       35.3607   29.4416    2.0763 H         1 UNK         0.0813 
    120 H120       35.1612   33.1543    1.5272 H         1 UNK         0.3038 
    121 H121       33.3326   34.1707    3.4079 H         1 UNK         0.0769 
    122 H122       36.3090   34.8209    3.0380 H         1 UNK         0.0811 
    123 H123       35.1541   35.8106    3.9194 H         1 UNK         0.0811 
    124 H124       34.9642   35.5859    2.1895 H         1 UNK         0.0811 
    125 H125       36.0382   31.9876    3.8964 H         1 UNK         0.3204 
    126 H126       36.1925   32.1291    6.7597 H         1 UNK         0.0748 
    127 H127       37.5391   30.0411    6.4858 H         1 UNK         0.0771 
    128 H128       37.0523   29.9273    4.8004 H         1 UNK         0.0771 
    129 H129       38.0556   31.2726    5.3475 H         1 UNK         0.0771 
    130 H130       33.8333   30.6118    4.6451 H         1 UNK         0.2980 
    131 H131       33.0577   28.5605    6.5688 H         1 UNK         0.0545 
    132 H132       32.3665   31.9390    6.4377 H         1 UNK         0.3459 
    133 H133       30.8902   31.8533    7.3686 H         1 UNK         0.3459 
    134 H134       31.6952   29.3638    3.9630 H         1 UNK         0.0616 
    135 H135       31.3031   27.9737    4.9214 H         1 UNK         0.0616 
    136 H136       33.5978   26.3354    5.7132 H         1 UNK         0.0634 
    137 H137       34.2804   25.5374    4.3235 H         1 UNK         0.0634 
@<TRIPOS>BOND
     1    1    2 1    
     2    1   72 1    
     3    1   73 1    
     4    1   74 1    
     5    2    3 2    
     6    2    4 am   BACKBONE|DICT|INTERRES
     7    4    5 1    
     8    4   75 1    
     9    5    6 1    
    10    5   35 1    
    11    5   76 1    
    12    6    7 1    
    13    6   77 1    
    14    6   78 1    
    15    7    8 1    
    16    8    9 1    
    17    8   79 1    
    18    8   80 1    
    19    9   10 ar   
    20    9   14 ar   
    21   10   11 ar   
    22   10   81 1    
    23   11   12 ar   
    24   11   71 1    
    25   12   13 ar   
    26   12   82 1    
    27   13   14 ar   
    28   13   15 1    
    29   14   83 1    
    30   15   16 1    
    31   15   84 1    
    32   15   85 1    
    33   16   17 1    
    34   17   18 1    
    35   17   86 1    
    36   17   87 1    
    37   18   19 1    
    38   18   37 1    
    39   18   88 1    
    40   19   20 am   BACKBONE|DICT|INTERRES
    41   19   89 1    
    42   20   21 2    
    43   20   22 1    
    44   22   23 1    
    45   22   24 1    
    46   22   90 1    
    47   23   91 1    
    48   23   92 1    
    49   23   93 1    
    50   24   25 am   BACKBONE|DICT|INTERRES
    51   24   94 1    
    52   25   26 2    
    53   25   27 1    
    54   27   28 1    
    55   27   29 1    
    56   27   95 1    
    57   28   96 1    
    58   28   97 1    
    59   28   98 1    
    60   29   30 am   BACKBONE|DICT|INTERRES
    61   29   99 1    
    62   30   31 2    
    63   30   32 1    
    64   32   33 1    
    65   32   34 1    
    66   32  100 1    
    67   33  101 1    
    68   33  102 1    
    69   33  103 1    
    70   34   35 am   BACKBONE|DICT|INTERRES
    71   34  104 1    
    72   35   36 2    
    73   37   38 2    
    74   37   39 am   BACKBONE|DICT|INTERRES
    75   39   40 1    
    76   39  105 1    
    77   40   41 1    
    78   40   42 1    
    79   40  106 1    
    80   41  107 1    
    81   41  108 1    
    82   41  109 1    
    83   42   43 2    
    84   42   44 am   BACKBONE|DICT|INTERRES
    85   44   45 1    
    86   44  110 1    
    87   45   46 1    
    88   45   47 1    
    89   45  111 1    
    90   46  112 1    
    91   46  113 1    
    92   46  114 1    
    93   47   48 2    
    94   47   49 am   BACKBONE|DICT|INTERRES
    95   49   50 1    
    96   49  115 1    
    97   50   51 1    
    98   50   52 1    
    99   50  116 1    
   100   51  117 1    
   101   51  118 1    
   102   51  119 1    
   103   52   53 2    
   104   52   54 am   BACKBONE|DICT|INTERRES
   105   54   55 1    
   106   54  120 1    
   107   55   56 1    
   108   55   57 1    
   109   55  121 1    
   110   56  122 1    
   111   56  123 1    
   112   56  124 1    
   113   57   58 2    
   114   57   59 am   BACKBONE|DICT|INTERRES
   115   59   60 1    
   116   59  125 1    
   117   60   61 1    
   118   60   62 1    
   119   60  126 1    
   120   61  127 1    
   121   61  128 1    
   122   61  129 1    
   123   62   63 2    
   124   62   64 am   BACKBONE|DICT|INTERRES
   125   64   65 1    
   126   64  130 1    
   127   65   66 1    
   128   65   69 1    
   129   65  131 1    
   130   66   67 am   BACKBONE|DICT|INTERRES
   131   66   68 2    
   132   67  132 1    
   133   67  133 1    
   134   69   70 1    
   135   69  134 1    
   136   69  135 1    
   137   70   71 1    
   138   71  136 1    
   139   71  137 1    
@<TRIPOS>SUBSTRUCTURE
     1 UNK         1 GROUP             0       ****    0 ROOT    
