@<TRIPOS>MOLECULE
3R136
137   139    1
SMALL
USER_CHARGES


@<TRIPOS>ATOM
      1 CA         33.3902   27.8297    1.9651 C.3       0 UNK        -0.1979 
      2 C          32.8705   26.7735    1.0039 C.2       0 UNK         0.4864 
      3 O          33.4590   26.5745   -0.0588 O.2       0 UNK        -0.5359 
      4 N          31.7820   26.0913    1.3839 N.am      1 UNK        -0.4318 
      5 CA         31.1212   25.0212    0.6284 C.3       1 UNK         0.0824 
      6 C6         32.0351   23.7857    0.3834 C.3       12 UNK        -0.0944 
      7 S7         31.0767   22.2339    0.2916 S.3       12 UNK        -0.2672 
      8 C8         31.3393   21.5280    1.9490 C.3       12 UNK         0.0333 
      9 C9         30.7181   22.3872    3.0411 C.ar      12 UNK        -0.0807 
     10 C10        31.5144   23.2677    3.7790 C.ar      12 UNK        -0.0894 
     11 C11        30.9627   24.0517    4.7992 C.ar      12 UNK        -0.0804 
     12 C12        29.5955   23.9401    5.0716 C.ar      12 UNK        -0.0824 
     13 C13        28.7839   23.0694    4.3364 C.ar      12 UNK        -0.0762 
     14 C14        29.3520   22.2940    3.3218 C.ar      12 UNK        -0.0782 
     15 C15        27.2997   22.9441    4.6576 C.3       12 UNK         0.0230 
     16 S16        26.2455   23.8489    3.4767 S.3       12 UNK        -0.2608 
     17 C17        26.7045   25.5829    3.8061 C.3       12 UNK        -0.0989 
     18 CA         27.1821   26.2940    2.5096 C.3       5 UNK         0.0716 
     19 N          26.0938   26.5976    1.5724 N.am      5 UNK        -0.4135 
     20 C          25.0387   27.4041    1.7719 C.2       4 UNK         0.5031 
     21 O          24.8684   28.0477    2.8088 O.2       4 UNK        -0.5229 
     22 CA         24.0038   27.5255    0.6326 C.3       4 UNK         0.0329 
     23 CB         23.3626   28.9246    0.5789 C.3       4 UNK        -0.2001 
     24 N          24.5983   27.2291   -0.6719 N.am      4 UNK        -0.4303 
     25 C          24.3495   26.1473   -1.4235 C.2       3 UNK         0.5044 
     26 O          23.4937   25.3031   -1.1578 O.2       3 UNK        -0.5152 
     27 CA         25.2430   25.9540   -2.6683 C.3       3 UNK         0.0319 
     28 CB         24.5484   26.5129   -3.9204 C.3       3 UNK        -0.2001 
     29 N          26.5770   26.5607   -2.5400 N.am      3 UNK        -0.4354 
     30 C          27.4663   26.2414   -1.5886 C.2       2 UNK         0.4964 
     31 O          27.2730   25.3512   -0.7568 O.2       2 UNK        -0.5047 
     32 CA         28.7145   27.1371   -1.4862 C.3       2 UNK         0.0288 
     33 CB         28.3080   28.5689   -1.0994 C.3       2 UNK        -0.2113 
     34 N          29.6467   26.6323   -0.4759 N.am      2 UNK        -0.4145 
     35 C          30.4277   25.5567   -0.6445 C.2       1 UNK         0.5006 
     36 O          30.5905   25.0035   -1.7353 O.2       1 UNK        -0.5103 
     37 C          28.0642   27.5236    2.7994 C.2       5 UNK         0.5055 
     38 O          29.1331   27.6545    2.1983 O.2       5 UNK        -0.5220 
     39 N          27.6098   28.3838    3.7186 N.am      6 UNK        -0.4450 
     40 CA         28.3641   29.5024    4.2895 C.3       6 UNK         0.0367 
     41 CB         27.8105   29.8034    5.6924 C.3       6 UNK        -0.1929 
     42 C          28.3722   30.7749    3.4242 C.2       6 UNK         0.5070 
     43 O          29.0197   31.7503    3.8046 O.2       6 UNK        -0.5237 
     44 N          27.6750   30.7712    2.2787 N.am      7 UNK        -0.4739 
     45 CA         27.6088   31.9069    1.3469 C.3       7 UNK         0.0276 
     46 CB         26.5110   31.6553    0.3015 C.3       7 UNK        -0.1927 
     47 C          28.9525   32.2599    0.6745 C.2       7 UNK         0.5013 
     48 O          29.1005   33.3809    0.1876 O.2       7 UNK        -0.5193 
     49 N          29.9103   31.3225    0.6919 N.am      8 UNK        -0.4253 
     50 CA         31.3000   31.5165    0.2659 C.3       8 UNK         0.0242 
     51 CB         31.7252   30.3292   -0.6205 C.3       8 UNK        -0.2000 
     52 C          32.2507   31.7217    1.4655 C.2       8 UNK         0.4948 
     53 O          33.4574   31.5295    1.3106 O.2       8 UNK        -0.5275 
     54 N          31.7011   32.1073    2.6281 N.am      9 UNK        -0.4246 
     55 CA         32.3539   32.2469    3.9348 C.3       9 UNK         0.0261 
     56 CB         33.5590   33.2155    3.8856 C.3       9 UNK        -0.1959 
     57 C          32.6697   30.8751    4.5618 C.2       9 UNK         0.5033 
     58 O          32.0328   29.8791    4.2104 O.2       9 UNK        -0.5390 
     59 N          33.5986   30.8502    5.5256 N.am      10 UNK        -0.4215 
     60 CA         34.0042   29.6470    6.2523 C.3       10 UNK         0.0240 
     61 CB         34.7873   30.0557    7.5108 C.3       10 UNK        -0.1982 
     62 C          34.8469   28.7086    5.3743 C.2       10 UNK         0.4970 
     63 O          35.7165   29.1772    4.6368 O.2       10 UNK        -0.4916 
     64 N          34.5943   27.4029    5.5073 N.am      11 UNK        -0.4279 
     65 CA         35.3408   26.3211    4.8454 C.3       11 UNK         0.1003 
     66 C          36.6510   25.8981    5.5735 C.2       11 UNK         0.5709 
     67 N          36.9603   26.4246    6.7530 N.am      11 UNK        -0.7358 
     68 O          37.4130   25.0905    5.0473 O.2       11 UNK        -0.4999 
     69 C69        34.4199   25.1123    4.5237 C.3       12 UNK        -0.0954 
     70 S70        33.5022   24.4749    5.9720 S.3       12 UNK        -0.2268 
     71 C71        31.8029   25.0398    5.6098 C.3       12 UNK         0.0203 
     72 H72        34.4716   27.7505    2.0685 H         1 UNK         0.0888 
     73 H73        33.1618   28.8272    1.5961 H         1 UNK         0.0888 
     74 H74        32.9479   27.7258    2.9554 H         1 UNK         0.0888 
     75 H75        31.3155   26.3570    2.2411 H         1 UNK         0.3017 
     76 H76        30.3067   24.7019    1.2811 H         1 UNK         0.0873 
     77 H77        32.7689   23.6904    1.1841 H         1 UNK         0.0745 
     78 H78        32.6253   23.8992   -0.5277 H         1 UNK         0.0745 
     79 H79        30.9019   20.5289    1.9786 H         1 UNK         0.0705 
     80 H80        32.4085   21.3949    2.1222 H         1 UNK         0.0705 
     81 H81        32.5681   23.3332    3.5538 H         1 UNK         0.1334 
     82 H82        29.1601   24.5346    5.8633 H         1 UNK         0.1417 
     83 H83        28.7307   21.6167    2.7512 H         1 UNK         0.1562 
     84 H84        27.0918   23.2969    5.6691 H         1 UNK         0.0748 
     85 H85        27.0156   21.8907    4.6431 H         1 UNK         0.0748 
     86 H86        27.4798   25.6080    4.5713 H         1 UNK         0.0940 
     87 H87        25.8464   26.0874    4.2517 H         1 UNK         0.0940 
     88 H88        27.8349   25.5967    1.9810 H         1 UNK         0.0703 
     89 H89        26.1715   26.1107    0.6848 H         1 UNK         0.3081 
     90 H90        23.2151   26.8055    0.8595 H         1 UNK         0.0719 
     91 H91        24.1039   29.7003    0.3908 H         1 UNK         0.0809 
     92 H92        22.6106   28.9834   -0.2081 H         1 UNK         0.0809 
     93 H93        22.8628   29.1681    1.5174 H         1 UNK         0.0809 
     94 H94        25.3113   27.8674   -0.9931 H         1 UNK         0.2990 
     95 H95        25.3818   24.8794   -2.8041 H         1 UNK         0.0690 
     96 H96        25.1249   26.3036   -4.8217 H         1 UNK         0.0788 
     97 H97        24.4037   27.5921   -3.8555 H         1 UNK         0.0788 
     98 H98        23.5649   26.0601   -4.0556 H         1 UNK         0.0788 
     99 H99        26.8002   27.3017   -3.1897 H         1 UNK         0.2993 
    100 H100       29.2128   27.1524   -2.4581 H         1 UNK         0.0949 
    101 H101       27.6607   29.0209   -1.8517 H         1 UNK         0.0767 
    102 H102       27.7790   28.5940   -0.1467 H         1 UNK         0.0767 
    103 H103       29.1795   29.2121   -1.0118 H         1 UNK         0.0767 
    104 H104       29.5595   27.0240    0.4580 H         1 UNK         0.3013 
    105 H105       26.6593   28.2585    4.0476 H         1 UNK         0.3121 
    106 H106       29.4055   29.1917    4.3984 H         1 UNK         0.0774 
    107 H107       26.7702   30.1290    5.6539 H         1 UNK         0.0815 
    108 H108       28.3825   30.5950    6.1786 H         1 UNK         0.0815 
    109 H109       27.8660   28.9265    6.3376 H         1 UNK         0.0815 
    110 H110       27.1438   29.9451    2.0467 H         1 UNK         0.2987 
    111 H111       27.3172   32.7861    1.9262 H         1 UNK         0.0949 
    112 H112       26.6927   30.7514   -0.2769 H         1 UNK         0.0806 
    113 H113       25.5338   31.5652    0.7753 H         1 UNK         0.0806 
    114 H114       26.4466   32.4844   -0.4047 H         1 UNK         0.0806 
    115 H115       29.6974   30.4417    1.1397 H         1 UNK         0.3010 
    116 H116       31.3821   32.4217   -0.3393 H         1 UNK         0.0829 
    117 H117       31.1596   30.3157   -1.5518 H         1 UNK         0.0813 
    118 H118       32.7783   30.3889   -0.8981 H         1 UNK         0.0813 
    119 H119       31.5707   29.3732   -0.1206 H         1 UNK         0.0813 
    120 H120       30.6896   32.1669    2.6746 H         1 UNK         0.3038 
    121 H121       31.6013   32.6995    4.5819 H         1 UNK         0.0769 
    122 H122       34.4302   32.7611    3.4121 H         1 UNK         0.0811 
    123 H123       33.8567   33.5314    4.8858 H         1 UNK         0.0811 
    124 H124       33.3143   34.1211    3.3303 H         1 UNK         0.0811 
    125 H125       34.1009   31.6997    5.7366 H         1 UNK         0.3204 
    126 H126       33.0991   29.1220    6.5668 H         1 UNK         0.0748 
    127 H127       35.7057   30.5890    7.2606 H         1 UNK         0.0771 
    128 H128       34.1911   30.6995    8.1581 H         1 UNK         0.0771 
    129 H129       35.0683   29.1812    8.0991 H         1 UNK         0.0771 
    130 H130       33.8859   27.0989    6.1587 H         1 UNK         0.2980 
    131 H131       35.6837   26.7033    3.8826 H         1 UNK         0.0545 
    132 H132       37.8157   26.1455    7.2071 H         1 UNK         0.3459 
    133 H133       36.3477   27.0892    7.1951 H         1 UNK         0.3459 
    134 H134       33.7086   25.4029    3.7507 H         1 UNK         0.0616 
    135 H135       34.9918   24.2908    4.0886 H         1 UNK         0.0616 
    136 H136       31.8295   25.9992    5.0913 H         1 UNK         0.0634 
    137 H137       31.3183   25.2284    6.5690 H         1 UNK         0.0634 
@<TRIPOS>BOND
     1    1    2 1    
     2    1   72 1    
     3    1   73 1    
     4    1   74 1    
     5    2    3 2    
     6    2    4 am   BACKBONE|DICT|INTERRES
     7    4    5 1    
     8    4   75 1    
     9    5    6 1    
    10    5   35 1    
    11    5   76 1    
    12    6    7 1    
    13    6   77 1    
    14    6   78 1    
    15    7    8 1    
    16    8    9 1    
    17    8   79 1    
    18    8   80 1    
    19    9   10 ar   
    20    9   14 ar   
    21   10   11 ar   
    22   10   81 1    
    23   11   12 ar   
    24   11   71 1    
    25   12   13 ar   
    26   12   82 1    
    27   13   14 ar   
    28   13   15 1    
    29   14   83 1    
    30   15   16 1    
    31   15   84 1    
    32   15   85 1    
    33   16   17 1    
    34   17   18 1    
    35   17   86 1    
    36   17   87 1    
    37   18   19 1    
    38   18   37 1    
    39   18   88 1    
    40   19   20 am   BACKBONE|DICT|INTERRES
    41   19   89 1    
    42   20   21 2    
    43   20   22 1    
    44   22   23 1    
    45   22   24 1    
    46   22   90 1    
    47   23   91 1    
    48   23   92 1    
    49   23   93 1    
    50   24   25 am   BACKBONE|DICT|INTERRES
    51   24   94 1    
    52   25   26 2    
    53   25   27 1    
    54   27   28 1    
    55   27   29 1    
    56   27   95 1    
    57   28   96 1    
    58   28   97 1    
    59   28   98 1    
    60   29   30 am   BACKBONE|DICT|INTERRES
    61   29   99 1    
    62   30   31 2    
    63   30   32 1    
    64   32   33 1    
    65   32   34 1    
    66   32  100 1    
    67   33  101 1    
    68   33  102 1    
    69   33  103 1    
    70   34   35 am   BACKBONE|DICT|INTERRES
    71   34  104 1    
    72   35   36 2    
    73   37   38 2    
    74   37   39 am   BACKBONE|DICT|INTERRES
    75   39   40 1    
    76   39  105 1    
    77   40   41 1    
    78   40   42 1    
    79   40  106 1    
    80   41  107 1    
    81   41  108 1    
    82   41  109 1    
    83   42   43 2    
    84   42   44 am   BACKBONE|DICT|INTERRES
    85   44   45 1    
    86   44  110 1    
    87   45   46 1    
    88   45   47 1    
    89   45  111 1    
    90   46  112 1    
    91   46  113 1    
    92   46  114 1    
    93   47   48 2    
    94   47   49 am   BACKBONE|DICT|INTERRES
    95   49   50 1    
    96   49  115 1    
    97   50   51 1    
    98   50   52 1    
    99   50  116 1    
   100   51  117 1    
   101   51  118 1    
   102   51  119 1    
   103   52   53 2    
   104   52   54 am   BACKBONE|DICT|INTERRES
   105   54   55 1    
   106   54  120 1    
   107   55   56 1    
   108   55   57 1    
   109   55  121 1    
   110   56  122 1    
   111   56  123 1    
   112   56  124 1    
   113   57   58 2    
   114   57   59 am   BACKBONE|DICT|INTERRES
   115   59   60 1    
   116   59  125 1    
   117   60   61 1    
   118   60   62 1    
   119   60  126 1    
   120   61  127 1    
   121   61  128 1    
   122   61  129 1    
   123   62   63 2    
   124   62   64 am   BACKBONE|DICT|INTERRES
   125   64   65 1    
   126   64  130 1    
   127   65   66 1    
   128   65   69 1    
   129   65  131 1    
   130   66   67 am   BACKBONE|DICT|INTERRES
   131   66   68 2    
   132   67  132 1    
   133   67  133 1    
   134   69   70 1    
   135   69  134 1    
   136   69  135 1    
   137   70   71 1    
   138   71  136 1    
   139   71  137 1    
@<TRIPOS>SUBSTRUCTURE
     1 UNK         1 GROUP             0       ****    0 ROOT    
