@<TRIPOS>MOLECULE
3R136
137   139    1
SMALL
USER_CHARGES


@<TRIPOS>ATOM
      1 CA         31.3227   27.5758   -4.9487 C.3       0 UNK        -0.1979 
      2 C          30.5736   27.2897   -3.6559 C.2       0 UNK         0.4864 
      3 O          29.4571   27.7785   -3.4736 O.2       0 UNK        -0.5359 
      4 N          31.1757   26.5021   -2.7547 N.am      1 UNK        -0.4318 
      5 CA         30.5907   26.1000   -1.4741 C.3       1 UNK         0.0824 
      6 C6         31.6848   25.7869   -0.4247 C.3       12 UNK        -0.0944 
      7 S7         31.0501   25.9192    1.2801 S.3       12 UNK        -0.2672 
      8 C8         31.2772   24.2096    1.8511 C.3       12 UNK         0.0333 
      9 C9         30.9391   24.0859    3.3264 C.ar      12 UNK        -0.0807 
     10 C10        31.9308   24.2728    4.2934 C.ar      12 UNK        -0.0894 
     11 C11        31.6230   24.1781    5.6547 C.ar      12 UNK        -0.0804 
     12 C12        30.3087   23.8948    6.0389 C.ar      12 UNK        -0.0824 
     13 C13        29.3070   23.6972    5.0827 C.ar      12 UNK        -0.0762 
     14 C14        29.6347   23.7835    3.7243 C.ar      12 UNK        -0.0782 
     15 C15        27.8917   23.3587    5.5485 C.3       12 UNK         0.0230 
     16 S16        26.5582   24.0351    4.5016 S.3       12 UNK        -0.2608 
     17 C17        26.8611   25.8340    4.5965 C.3       12 UNK        -0.0989 
     18 CA         27.0638   26.4707    3.1889 C.3       5 UNK         0.0716 
     19 N          25.9259   26.2440    2.2853 N.am      5 UNK        -0.4135 
     20 C          24.6394   26.5854    2.4758 C.2       4 UNK         0.5031 
     21 O          24.2163   27.1879    3.4642 O.2       4 UNK        -0.5229 
     22 CA         23.6291   26.1670    1.3862 C.3       4 UNK         0.0329 
     23 CB         23.3847   27.3266    0.4067 C.3       4 UNK        -0.2001 
     24 N          24.0465   24.9834    0.6317 N.am      4 UNK        -0.4303 
     25 C          24.1522   23.7457    1.1364 C.2       3 UNK         0.5044 
     26 O          23.7256   23.4272    2.2465 O.2       3 UNK        -0.5152 
     27 CA         24.8657   22.6801    0.2749 C.3       3 UNK         0.0319 
     28 CB         23.8635   21.6154   -0.2022 C.3       3 UNK        -0.2001 
     29 N          25.6049   23.1893   -0.8907 N.am      3 UNK        -0.4354 
     30 C          26.6137   24.0726   -0.8685 C.2       2 UNK         0.4964 
     31 O          27.0222   24.6157    0.1614 O.2       2 UNK        -0.5047 
     32 CA         27.2029   24.4556   -2.2392 C.3       2 UNK         0.0288 
     33 CB         26.1548   25.1797   -3.1046 C.3       2 UNK        -0.2113 
     34 N          28.3664   25.3308   -2.1055 N.am      2 UNK        -0.4145 
     35 C          29.5796   24.9548   -1.6843 C.2       1 UNK         0.5006 
     36 O          29.9117   23.7810   -1.5013 O.2       1 UNK        -0.5103 
     37 C          27.4710   27.9597    3.2872 C.2       5 UNK         0.5055 
     38 O          26.7662   28.8437    2.7935 O.2       5 UNK        -0.5220 
     39 N          28.6180   28.2014    3.9413 N.am      6 UNK        -0.4450 
     40 CA         29.1719   29.5104    4.3101 C.3       6 UNK         0.0367 
     41 CB         28.2998   30.1816    5.3922 C.3       6 UNK        -0.1929 
     42 C          29.4515   30.4312    3.1066 C.2       6 UNK         0.5070 
     43 O          29.0662   31.6032    3.1162 O.2       6 UNK        -0.5237 
     44 N          30.1232   29.8905    2.0825 N.am      7 UNK        -0.4739 
     45 CA         30.5232   30.6233    0.8805 C.3       7 UNK         0.0276 
     46 CB         30.7001   29.6400   -0.2882 C.3       7 UNK        -0.1927 
     47 C          31.7790   31.4704    1.1484 C.2       7 UNK         0.5013 
     48 O          32.8827   31.0887    0.7506 O.2       7 UNK        -0.5193 
     49 N          31.5770   32.6012    1.8402 N.am      8 UNK        -0.4253 
     50 CA         32.5750   33.6065    2.2199 C.3       8 UNK         0.0242 
     51 CB         33.0639   34.3828    0.9752 C.3       8 UNK        -0.2000 
     52 C          33.7057   32.9840    3.0577 C.2       8 UNK         0.4948 
     53 O          33.4692   32.6349    4.2143 O.2       8 UNK        -0.5275 
     54 N          34.8961   32.8260    2.4634 N.am      9 UNK        -0.4246 
     55 CA         36.0604   32.1821    3.0764 C.3       9 UNK         0.0261 
     56 CB         37.2787   32.3533    2.1548 C.3       9 UNK        -0.1959 
     57 C          35.8436   30.6946    3.4117 C.2       9 UNK         0.5033 
     58 O          36.4792   30.1944    4.3419 O.2       9 UNK        -0.5390 
     59 N          34.9501   30.0138    2.6794 N.am      10 UNK        -0.4215 
     60 CA         34.5670   28.6276    2.9351 C.3       10 UNK         0.0240 
     61 CB         34.1289   27.9667    1.6183 C.3       10 UNK        -0.1982 
     62 C          33.4812   28.5709    4.0226 C.2       10 UNK         0.4970 
     63 O          32.3042   28.3873    3.7118 O.2       10 UNK        -0.4916 
     64 N          33.9168   28.7361    5.2772 N.am      11 UNK        -0.4279 
     65 CA         33.1269   28.5768    6.5118 C.3       11 UNK         0.1003 
     66 C          32.0913   29.7056    6.7954 C.2       11 UNK         0.5709 
     67 N          32.1351   30.8477    6.1224 N.am      11 UNK        -0.7358 
     68 O          31.2406   29.5604    7.6699 O.2       11 UNK        -0.4999 
     69 C69        32.5086   27.1543    6.6643 C.3       12 UNK        -0.0954 
     70 S70        33.7427   25.8221    6.4917 S.3       12 UNK        -0.2268 
     71 C71        32.7053   24.3414    6.7188 C.3       12 UNK         0.0203 
     72 H72        31.4789   28.6483   -5.0611 H         1 UNK         0.0888 
     73 H73        32.2965   27.0869   -4.9730 H         1 UNK         0.0888 
     74 H74        30.7445   27.2237   -5.8025 H         1 UNK         0.0888 
     75 H75        32.0781   26.1020   -2.9696 H         1 UNK         0.3017 
     76 H76        30.0230   26.9499   -1.0924 H         1 UNK         0.0873 
     77 H77        32.1473   24.8138   -0.5997 H         1 UNK         0.0745 
     78 H78        32.4938   26.5141   -0.5080 H         1 UNK         0.0745 
     79 H79        32.3096   23.9011    1.6789 H         1 UNK         0.0705 
     80 H80        30.6487   23.5424    1.2590 H         1 UNK         0.0705 
     81 H81        32.9429   24.4978    3.9858 H         1 UNK         0.1334 
     82 H82        30.0663   23.8129    7.0899 H         1 UNK         0.1417 
     83 H83        28.8749   23.6242    2.9710 H         1 UNK         0.1562 
     84 H84        27.7333   23.7128    6.5685 H         1 UNK         0.0748 
     85 H85        27.7895   22.2733    5.5803 H         1 UNK         0.0748 
     86 H86        27.7291   26.0078    5.2339 H         1 UNK         0.0940 
     87 H87        26.0227   26.2974    5.1184 H         1 UNK         0.0940 
     88 H88        27.9061   25.9677    2.7111 H         1 UNK         0.0703 
     89 H89        26.1669   25.7341    1.4397 H         1 UNK         0.3081 
     90 H90        22.6856   25.9333    1.8841 H         1 UNK         0.0719 
     91 H91        24.2928   27.5974   -0.1336 H         1 UNK         0.0809 
     92 H92        22.6179   27.0743   -0.3259 H         1 UNK         0.0809 
     93 H93        23.0443   28.2175    0.9366 H         1 UNK         0.0809 
     94 H94        24.4048   25.1415   -0.2980 H         1 UNK         0.2990 
     95 H95        25.5940   22.1937    0.9272 H         1 UNK         0.0690 
     96 H96        24.3670   20.7959   -0.7155 H         1 UNK         0.0788 
     97 H97        23.1227   22.0363   -0.8832 H         1 UNK         0.0788 
     98 H98        23.3219   21.1807    0.6393 H         1 UNK         0.0788 
     99 H99        25.3220   22.8149   -1.7854 H         1 UNK         0.2993 
    100 H100       27.5141   23.5386   -2.7443 H         1 UNK         0.0949 
    101 H101       25.7874   26.0858   -2.6204 H         1 UNK         0.0767 
    102 H102       26.5716   25.4657   -4.0709 H         1 UNK         0.0767 
    103 H103       25.2922   24.5442   -3.3080 H         1 UNK         0.0767 
    104 H104       28.2203   26.3145   -2.2947 H         1 UNK         0.3013 
    105 H105       29.1695   27.4090    4.2410 H         1 UNK         0.3121 
    106 H106       30.1402   29.3066    4.7618 H         1 UNK         0.0774 
    107 H107       28.7626   31.1025    5.7490 H         1 UNK         0.0815 
    108 H108       27.3103   30.4391    5.0133 H         1 UNK         0.0815 
    109 H109       28.1720   29.5312    6.2574 H         1 UNK         0.0815 
    110 H110       30.4882   28.9525    2.1913 H         1 UNK         0.2987 
    111 H111       29.7219   31.3103    0.5980 H         1 UNK         0.0949 
    112 H112       31.0712   30.1495   -1.1784 H         1 UNK         0.0806 
    113 H113       31.4031   28.8431   -0.0518 H         1 UNK         0.0806 
    114 H114       29.7475   29.1835   -0.5549 H         1 UNK         0.0806 
    115 H115       30.6441   32.7432    2.2131 H         1 UNK         0.3010 
    116 H116       32.0684   34.3176    2.8743 H         1 UNK         0.0829 
    117 H117       32.2348   34.8991    0.4910 H         1 UNK         0.0813 
    118 H118       33.7954   35.1449    1.2477 H         1 UNK         0.0813 
    119 H119       33.5211   33.7326    0.2285 H         1 UNK         0.0813 
    120 H120       34.9884   33.1152    1.5003 H         1 UNK         0.3038 
    121 H121       36.2664   32.6989    4.0161 H         1 UNK         0.0769 
    122 H122       38.1692   31.9061    2.5990 H         1 UNK         0.0811 
    123 H123       37.5007   33.4063    1.9801 H         1 UNK         0.0811 
    124 H124       37.1231   31.8759    1.1865 H         1 UNK         0.0811 
    125 H125       34.4138   30.5046    1.9689 H         1 UNK         0.3204 
    126 H126       35.4337   28.0709    3.2986 H         1 UNK         0.0748 
    127 H127       33.8758   26.9183    1.7794 H         1 UNK         0.0771 
    128 H128       33.2516   28.4531    1.1963 H         1 UNK         0.0771 
    129 H129       34.9224   27.9995    0.8719 H         1 UNK         0.0771 
    130 H130       34.8953   28.9591    5.4087 H         1 UNK         0.2980 
    131 H131       33.8553   28.6859    7.3156 H         1 UNK         0.0545 
    132 H132       32.8334   31.0344    5.4142 H         1 UNK         0.3459 
    133 H133       31.4676   31.5660    6.3486 H         1 UNK         0.3459 
    134 H134       31.7174   27.0014    5.9287 H         1 UNK         0.0616 
    135 H135       32.0407   27.0422    7.6439 H         1 UNK         0.0616 
    136 H136       32.2663   24.3786    7.7170 H         1 UNK         0.0634 
    137 H137       33.3482   23.4607    6.6977 H         1 UNK         0.0634 
@<TRIPOS>BOND
     1    1    2 1    
     2    1   72 1    
     3    1   73 1    
     4    1   74 1    
     5    2    3 2    
     6    2    4 am   BACKBONE|DICT|INTERRES
     7    4    5 1    
     8    4   75 1    
     9    5    6 1    
    10    5   35 1    
    11    5   76 1    
    12    6    7 1    
    13    6   77 1    
    14    6   78 1    
    15    7    8 1    
    16    8    9 1    
    17    8   79 1    
    18    8   80 1    
    19    9   10 ar   
    20    9   14 ar   
    21   10   11 ar   
    22   10   81 1    
    23   11   12 ar   
    24   11   71 1    
    25   12   13 ar   
    26   12   82 1    
    27   13   14 ar   
    28   13   15 1    
    29   14   83 1    
    30   15   16 1    
    31   15   84 1    
    32   15   85 1    
    33   16   17 1    
    34   17   18 1    
    35   17   86 1    
    36   17   87 1    
    37   18   19 1    
    38   18   37 1    
    39   18   88 1    
    40   19   20 am   BACKBONE|DICT|INTERRES
    41   19   89 1    
    42   20   21 2    
    43   20   22 1    
    44   22   23 1    
    45   22   24 1    
    46   22   90 1    
    47   23   91 1    
    48   23   92 1    
    49   23   93 1    
    50   24   25 am   BACKBONE|DICT|INTERRES
    51   24   94 1    
    52   25   26 2    
    53   25   27 1    
    54   27   28 1    
    55   27   29 1    
    56   27   95 1    
    57   28   96 1    
    58   28   97 1    
    59   28   98 1    
    60   29   30 am   BACKBONE|DICT|INTERRES
    61   29   99 1    
    62   30   31 2    
    63   30   32 1    
    64   32   33 1    
    65   32   34 1    
    66   32  100 1    
    67   33  101 1    
    68   33  102 1    
    69   33  103 1    
    70   34   35 am   BACKBONE|DICT|INTERRES
    71   34  104 1    
    72   35   36 2    
    73   37   38 2    
    74   37   39 am   BACKBONE|DICT|INTERRES
    75   39   40 1    
    76   39  105 1    
    77   40   41 1    
    78   40   42 1    
    79   40  106 1    
    80   41  107 1    
    81   41  108 1    
    82   41  109 1    
    83   42   43 2    
    84   42   44 am   BACKBONE|DICT|INTERRES
    85   44   45 1    
    86   44  110 1    
    87   45   46 1    
    88   45   47 1    
    89   45  111 1    
    90   46  112 1    
    91   46  113 1    
    92   46  114 1    
    93   47   48 2    
    94   47   49 am   BACKBONE|DICT|INTERRES
    95   49   50 1    
    96   49  115 1    
    97   50   51 1    
    98   50   52 1    
    99   50  116 1    
   100   51  117 1    
   101   51  118 1    
   102   51  119 1    
   103   52   53 2    
   104   52   54 am   BACKBONE|DICT|INTERRES
   105   54   55 1    
   106   54  120 1    
   107   55   56 1    
   108   55   57 1    
   109   55  121 1    
   110   56  122 1    
   111   56  123 1    
   112   56  124 1    
   113   57   58 2    
   114   57   59 am   BACKBONE|DICT|INTERRES
   115   59   60 1    
   116   59  125 1    
   117   60   61 1    
   118   60   62 1    
   119   60  126 1    
   120   61  127 1    
   121   61  128 1    
   122   61  129 1    
   123   62   63 2    
   124   62   64 am   BACKBONE|DICT|INTERRES
   125   64   65 1    
   126   64  130 1    
   127   65   66 1    
   128   65   69 1    
   129   65  131 1    
   130   66   67 am   BACKBONE|DICT|INTERRES
   131   66   68 2    
   132   67  132 1    
   133   67  133 1    
   134   69   70 1    
   135   69  134 1    
   136   69  135 1    
   137   70   71 1    
   138   71  136 1    
   139   71  137 1    
@<TRIPOS>SUBSTRUCTURE
     1 UNK         1 GROUP             0       ****    0 ROOT    
