@<TRIPOS>MOLECULE
3R136
137   139    1
SMALL
USER_CHARGES


@<TRIPOS>ATOM
      1 CA         29.3042   21.1030   -3.3128 C.3       0 UNK        -0.1979 
      2 C          29.6739   22.5667   -3.1213 C.2       0 UNK         0.4864 
      3 O          29.9292   23.2660   -4.1033 O.2       0 UNK        -0.5359 
      4 N          29.7118   23.0313   -1.8656 N.am      1 UNK        -0.4318 
      5 CA         29.9731   24.4273   -1.4996 C.3       1 UNK         0.0824 
      6 C6         30.4067   24.5425   -0.0193 C.3       12 UNK        -0.0944 
      7 S7         31.4287   26.0219    0.3055 S.3       12 UNK        -0.2672 
      8 C8         32.7449   25.3688    1.3885 C.3       12 UNK         0.0333 
      9 C9         32.2838   25.2298    2.8349 C.ar      12 UNK        -0.0807 
     10 C10        32.8036   26.0617    3.8326 C.ar      12 UNK        -0.0894 
     11 C11        32.3783   25.9293    5.1599 C.ar      12 UNK        -0.0804 
     12 C12        31.3959   24.9867    5.4796 C.ar      12 UNK        -0.0824 
     13 C13        30.8636   24.1570    4.4890 C.ar      12 UNK        -0.0762 
     14 C14        31.3399   24.2604    3.1817 C.ar      12 UNK        -0.0782 
     15 C15        29.7707   23.1492    4.8196 C.3       12 UNK         0.0230 
     16 S16        28.2935   23.3582    3.7653 S.3       12 UNK        -0.2608 
     17 C17        27.7120   25.0205    4.2521 C.3       12 UNK        -0.0989 
     18 CA         27.5598   26.0131    3.0584 C.3       5 UNK         0.0716 
     19 N          26.7087   25.5308    1.9573 N.am      5 UNK        -0.4135 
     20 C          25.4821   24.9960    2.0444 C.2       4 UNK         0.5031 
     21 O          24.8539   24.8681    3.0966 O.2       4 UNK        -0.5229 
     22 CA         24.8462   24.5637    0.7076 C.3       4 UNK         0.0329 
     23 CB         23.4542   23.9182    0.8789 C.3       4 UNK        -0.2001 
     24 N          24.7935   25.6624   -0.2640 N.am      4 UNK        -0.4303 
     25 C          24.1962   26.8553   -0.1055 C.2       3 UNK         0.5044 
     26 O          23.5469   27.1650    0.8932 O.2       3 UNK        -0.5152 
     27 CA         24.3713   27.8824   -1.2471 C.3       3 UNK         0.0319 
     28 CB         24.1937   29.3401   -0.7726 C.3       3 UNK        -0.2001 
     29 N          25.6330   27.7498   -1.9875 N.am      3 UNK        -0.4354 
     30 C          26.8716   27.7571   -1.4737 C.2       2 UNK         0.4964 
     31 O          27.1227   27.8628   -0.2713 O.2       2 UNK        -0.5047 
     32 CA         28.0160   27.5978   -2.4886 C.3       2 UNK         0.0288 
     33 CB         28.7262   28.9389   -2.7298 C.3       2 UNK        -0.2113 
     34 N          29.0041   26.5971   -2.0839 N.am      2 UNK        -0.4145 
     35 C          28.7467   25.3110   -1.8105 C.2       1 UNK         0.5006 
     36 O          27.6121   24.8203   -1.7938 O.2       1 UNK        -0.5103 
     37 C          27.1710   27.4212    3.5659 C.2       5 UNK         0.5055 
     38 O          27.8830   27.9551    4.4185 O.2       5 UNK        -0.5220 
     39 N          26.0734   28.0132    3.0684 N.am      6 UNK        -0.4450 
     40 CA         25.6118   29.3450    3.4772 C.3       6 UNK         0.0367 
     41 CB         24.1115   29.4902    3.1804 C.3       6 UNK        -0.1929 
     42 C          26.4113   30.4943    2.8360 C.2       6 UNK         0.5070 
     43 O          26.3539   31.6143    3.3452 O.2       6 UNK        -0.5237 
     44 N          27.1392   30.2124    1.7502 N.am      7 UNK        -0.4739 
     45 CA         28.0669   31.1249    1.0878 C.3       7 UNK         0.0276 
     46 CB         27.4778   31.5345   -0.2731 C.3       7 UNK        -0.1927 
     47 C          29.4264   30.4261    0.9354 C.2       7 UNK         0.5013 
     48 O          29.5205   29.2154    1.1447 O.2       7 UNK        -0.5193 
     49 N          30.4606   31.2105    0.5918 N.am      8 UNK        -0.4253 
     50 CA         31.8652   30.7925    0.4367 C.3       8 UNK         0.0242 
     51 CB         32.0327   29.8856   -0.8014 C.3       8 UNK        -0.2000 
     52 C          32.4613   30.1679    1.7175 C.2       8 UNK         0.4948 
     53 O          33.2913   29.2580    1.6425 O.2       8 UNK        -0.5275 
     54 N          32.0248   30.6721    2.8806 N.am      9 UNK        -0.4246 
     55 CA         32.3764   30.1758    4.2094 C.3       9 UNK         0.0261 
     56 CB         31.3122   30.6444    5.2186 C.3       9 UNK        -0.1959 
     57 C          33.8052   30.5801    4.6188 C.2       9 UNK         0.5033 
     58 O          33.9860   31.4147    5.5062 O.2       9 UNK        -0.5390 
     59 N          34.7964   29.9754    3.9540 N.am      10 UNK        -0.4215 
     60 CA         36.2335   30.1871    4.1634 C.3       10 UNK         0.0240 
     61 CB         36.9913   29.5975    2.9610 C.3       10 UNK        -0.1982 
     62 C          36.7878   29.6149    5.4858 C.2       10 UNK         0.4970 
     63 O          37.9526   29.8662    5.7977 O.2       10 UNK        -0.4916 
     64 N          35.9718   28.8438    6.2156 N.am      11 UNK        -0.4279 
     65 CA         36.2791   28.2138    7.5083 C.3       11 UNK         0.1003 
     66 C          36.7367   29.2249    8.5965 C.2       11 UNK         0.5709 
     67 N          37.7167   28.8595    9.4119 N.am      11 UNK        -0.7358 
     68 O          36.1798   30.3123    8.7368 O.2       11 UNK        -0.4999 
     69 C69        35.0738   27.3862    8.0279 C.3       12 UNK        -0.0954 
     70 S70        34.5394   26.0895    6.8618 S.3       12 UNK        -0.2268 
     71 C71        32.9814   26.7992    6.2506 C.3       12 UNK         0.0203 
     72 H72        28.4007   21.0208   -3.9163 H         1 UNK         0.0888 
     73 H73        30.1077   20.5770   -3.8277 H         1 UNK         0.0888 
     74 H74        29.1242   20.5998   -2.3629 H         1 UNK         0.0888 
     75 H75        29.4553   22.4185   -1.1053 H         1 UNK         0.3017 
     76 H76        30.8004   24.7672   -2.1275 H         1 UNK         0.0873 
     77 H77        31.0056   23.6671    0.2333 H         1 UNK         0.0745 
     78 H78        29.5498   24.5323    0.6577 H         1 UNK         0.0745 
     79 H79        33.5957   26.0497    1.3308 H         1 UNK         0.0705 
     80 H80        33.1010   24.4080    1.0145 H         1 UNK         0.0705 
     81 H81        33.5492   26.8026    3.5788 H         1 UNK         0.1334 
     82 H82        31.0510   24.8966    6.5008 H         1 UNK         0.1417 
     83 H83        30.9415   23.5947    2.4328 H         1 UNK         0.1562 
     84 H84        29.4728   23.2227    5.8667 H         1 UNK         0.0748 
     85 H85        30.1648   22.1418    4.6803 H         1 UNK         0.0748 
     86 H86        28.4079   25.4297    4.9865 H         1 UNK         0.0940 
     87 H87        26.7691   24.9071    4.7886 H         1 UNK         0.0940 
     88 H88        28.5500   26.1362    2.6154 H         1 UNK         0.0703 
     89 H89        27.0937   25.6711    1.0327 H         1 UNK         0.3081 
     90 H90        25.5085   23.8075    0.2830 H         1 UNK         0.0719 
     91 H91        22.7359   24.6100    1.3200 H         1 UNK         0.0809 
     92 H92        23.0526   23.5825   -0.0769 H         1 UNK         0.0809 
     93 H93        23.5075   23.0465    1.5323 H         1 UNK         0.0809 
     94 H94        25.3406   25.5222   -1.1042 H         1 UNK         0.2990 
     95 H95        23.5737   27.6695   -1.9602 H         1 UNK         0.0690 
     96 H96        24.2679   30.0390   -1.6056 H         1 UNK         0.0788 
     97 H97        24.9494   29.6183   -0.0387 H         1 UNK         0.0788 
     98 H98        23.2159   29.4911   -0.3139 H         1 UNK         0.0788 
     99 H99        25.5337   27.6352   -2.9870 H         1 UNK         0.2993 
    100 H100       27.5960   27.2598   -3.4382 H         1 UNK         0.0949 
    101 H101       29.4951   28.8508   -3.4975 H         1 UNK         0.0767 
    102 H102       28.0220   29.7013   -3.0653 H         1 UNK         0.0767 
    103 H103       29.2015   29.3074   -1.8209 H         1 UNK         0.0767 
    104 H104       29.9556   26.9219   -1.9921 H         1 UNK         0.3013 
    105 H105       25.5222   27.5279    2.3730 H         1 UNK         0.3121 
    106 H106       25.7393   29.4318    4.5584 H         1 UNK         0.0774 
    107 H107       23.7259   30.4281    3.5820 H         1 UNK         0.0815 
    108 H108       23.9077   29.4911    2.1113 H         1 UNK         0.0815 
    109 H109       23.5348   28.6824    3.6313 H         1 UNK         0.0815 
    110 H110       27.1883   29.2543    1.4160 H         1 UNK         0.2987 
    111 H111       28.2228   32.0194    1.6950 H         1 UNK         0.0949 
    112 H112       27.2661   30.6674   -0.8966 H         1 UNK         0.0806 
    113 H113       26.5444   32.0828   -0.1457 H         1 UNK         0.0806 
    114 H114       28.1591   32.1805   -0.8276 H         1 UNK         0.0806 
    115 H115       30.2831   32.1948    0.4436 H         1 UNK         0.3010 
    116 H116       32.4388   31.7024    0.2549 H         1 UNK         0.0829 
    117 H117       31.6345   30.3592   -1.6985 H         1 UNK         0.0813 
    118 H118       33.0847   29.6683   -0.9896 H         1 UNK         0.0813 
    119 H119       31.5239   28.9302   -0.6712 H         1 UNK         0.0813 
    120 H120       31.3707   31.4398    2.8480 H         1 UNK         0.3038 
    121 H121       32.3340   29.0860    4.1749 H         1 UNK         0.0769 
    122 H122       31.5335   30.2718    6.2197 H         1 UNK         0.0811 
    123 H123       30.3220   30.2743    4.9497 H         1 UNK         0.0811 
    124 H124       31.2607   31.7322    5.2793 H         1 UNK         0.0811 
    125 H125       34.5264   29.3891    3.1677 H         1 UNK         0.3204 
    126 H126       36.4125   31.2644    4.1850 H         1 UNK         0.0748 
    127 H127       38.0643   29.7763    3.0447 H         1 UNK         0.0771 
    128 H128       36.8449   28.5191    2.8828 H         1 UNK         0.0771 
    129 H129       36.6632   30.0493    2.0244 H         1 UNK         0.0771 
    130 H130       35.0366   28.7003    5.8743 H         1 UNK         0.2980 
    131 H131       37.1066   27.5260    7.3241 H         1 UNK         0.0545 
    132 H132       38.1700   27.9640    9.3155 H         1 UNK         0.3459 
    133 H133       38.0142   29.4956   10.1350 H         1 UNK         0.3459 
    134 H134       34.2305   28.0392    8.2612 H         1 UNK         0.0616 
    135 H135       35.3351   26.8879    8.9633 H         1 UNK         0.0616 
    136 H136       33.1670   27.8021    5.8716 H         1 UNK         0.0634 
    137 H137       32.2825   26.9075    7.0816 H         1 UNK         0.0634 
@<TRIPOS>BOND
     1    1    2 1    
     2    1   72 1    
     3    1   73 1    
     4    1   74 1    
     5    2    3 2    
     6    2    4 am   BACKBONE|DICT|INTERRES
     7    4    5 1    
     8    4   75 1    
     9    5    6 1    
    10    5   35 1    
    11    5   76 1    
    12    6    7 1    
    13    6   77 1    
    14    6   78 1    
    15    7    8 1    
    16    8    9 1    
    17    8   79 1    
    18    8   80 1    
    19    9   10 ar   
    20    9   14 ar   
    21   10   11 ar   
    22   10   81 1    
    23   11   12 ar   
    24   11   71 1    
    25   12   13 ar   
    26   12   82 1    
    27   13   14 ar   
    28   13   15 1    
    29   14   83 1    
    30   15   16 1    
    31   15   84 1    
    32   15   85 1    
    33   16   17 1    
    34   17   18 1    
    35   17   86 1    
    36   17   87 1    
    37   18   19 1    
    38   18   37 1    
    39   18   88 1    
    40   19   20 am   BACKBONE|DICT|INTERRES
    41   19   89 1    
    42   20   21 2    
    43   20   22 1    
    44   22   23 1    
    45   22   24 1    
    46   22   90 1    
    47   23   91 1    
    48   23   92 1    
    49   23   93 1    
    50   24   25 am   BACKBONE|DICT|INTERRES
    51   24   94 1    
    52   25   26 2    
    53   25   27 1    
    54   27   28 1    
    55   27   29 1    
    56   27   95 1    
    57   28   96 1    
    58   28   97 1    
    59   28   98 1    
    60   29   30 am   BACKBONE|DICT|INTERRES
    61   29   99 1    
    62   30   31 2    
    63   30   32 1    
    64   32   33 1    
    65   32   34 1    
    66   32  100 1    
    67   33  101 1    
    68   33  102 1    
    69   33  103 1    
    70   34   35 am   BACKBONE|DICT|INTERRES
    71   34  104 1    
    72   35   36 2    
    73   37   38 2    
    74   37   39 am   BACKBONE|DICT|INTERRES
    75   39   40 1    
    76   39  105 1    
    77   40   41 1    
    78   40   42 1    
    79   40  106 1    
    80   41  107 1    
    81   41  108 1    
    82   41  109 1    
    83   42   43 2    
    84   42   44 am   BACKBONE|DICT|INTERRES
    85   44   45 1    
    86   44  110 1    
    87   45   46 1    
    88   45   47 1    
    89   45  111 1    
    90   46  112 1    
    91   46  113 1    
    92   46  114 1    
    93   47   48 2    
    94   47   49 am   BACKBONE|DICT|INTERRES
    95   49   50 1    
    96   49  115 1    
    97   50   51 1    
    98   50   52 1    
    99   50  116 1    
   100   51  117 1    
   101   51  118 1    
   102   51  119 1    
   103   52   53 2    
   104   52   54 am   BACKBONE|DICT|INTERRES
   105   54   55 1    
   106   54  120 1    
   107   55   56 1    
   108   55   57 1    
   109   55  121 1    
   110   56  122 1    
   111   56  123 1    
   112   56  124 1    
   113   57   58 2    
   114   57   59 am   BACKBONE|DICT|INTERRES
   115   59   60 1    
   116   59  125 1    
   117   60   61 1    
   118   60   62 1    
   119   60  126 1    
   120   61  127 1    
   121   61  128 1    
   122   61  129 1    
   123   62   63 2    
   124   62   64 am   BACKBONE|DICT|INTERRES
   125   64   65 1    
   126   64  130 1    
   127   65   66 1    
   128   65   69 1    
   129   65  131 1    
   130   66   67 am   BACKBONE|DICT|INTERRES
   131   66   68 2    
   132   67  132 1    
   133   67  133 1    
   134   69   70 1    
   135   69  134 1    
   136   69  135 1    
   137   70   71 1    
   138   71  136 1    
   139   71  137 1    
@<TRIPOS>SUBSTRUCTURE
     1 UNK         1 GROUP             0       ****    0 ROOT    
