@<TRIPOS>MOLECULE
3R136
137   139    1
SMALL
USER_CHARGES


@<TRIPOS>ATOM
      1 CA         31.0672   21.1460   -2.5093 C.3       0 UNK        -0.1979 
      2 C          30.1555   22.3480   -2.3144 C.2       0 UNK         0.4864 
      3 O          29.3329   22.6423   -3.1833 O.2       0 UNK        -0.5359 
      4 N          30.2790   23.0389   -1.1740 N.am      1 UNK        -0.4318 
      5 CA         29.5309   24.2498   -0.8063 C.3       1 UNK         0.0824 
      6 C6         30.2818   25.0688    0.2764 C.3       12 UNK        -0.0944 
      7 S7         31.9841   25.5276   -0.1920 S.3       12 UNK        -0.2672 
      8 C8         32.4698   26.5888    1.2085 C.3       12 UNK         0.0333 
      9 C9         32.4063   25.8521    2.5389 C.ar      12 UNK        -0.0807 
     10 C10        33.4905   25.0943    2.9854 C.ar      12 UNK        -0.0894 
     11 C11        33.4268   24.4191    4.2078 C.ar      12 UNK        -0.0804 
     12 C12        32.2693   24.5154    4.9889 C.ar      12 UNK        -0.0824 
     13 C13        31.1699   25.2649    4.5522 C.ar      12 UNK        -0.0762 
     14 C14        31.2552   25.9333    3.3257 C.ar      12 UNK        -0.0782 
     15 C15        29.9137   25.3227    5.4250 C.3       12 UNK         0.0230 
     16 S16        28.3522   25.6397    4.5208 S.3       12 UNK        -0.2608 
     17 C17        28.0286   27.4116    4.8430 C.3       12 UNK        -0.0989 
     18 CA         28.1925   28.3210    3.5972 C.3       5 UNK         0.0716 
     19 N          27.4023   27.8557    2.4524 N.am      5 UNK        -0.4135 
     20 C          27.4368   28.4065    1.2319 C.2       4 UNK         0.5031 
     21 O          28.1894   29.3354    0.9402 O.2       4 UNK        -0.5229 
     22 CA         26.4923   27.8595    0.1509 C.3       4 UNK         0.0329 
     23 CB         27.2554   27.5759   -1.1553 C.3       4 UNK        -0.2001 
     24 N          25.7888   26.6445    0.5719 N.am      4 UNK        -0.4303 
     25 C          24.4678   26.5595    0.7894 C.2       3 UNK         0.5044 
     26 O          23.7070   27.5276    0.7400 O.2       3 UNK        -0.5152 
     27 CA         23.8961   25.1632    1.1240 C.3       3 UNK         0.0319 
     28 CB         22.4156   25.0111    0.7131 C.3       3 UNK        -0.2001 
     29 N          24.7001   24.0528    0.5955 N.am      3 UNK        -0.4354 
     30 C          24.9899   23.7917   -0.6889 C.2       2 UNK         0.4964 
     31 O          24.5512   24.4272   -1.6493 O.2       2 UNK        -0.5047 
     32 CA         25.9945   22.6502   -0.9276 C.3       2 UNK         0.0288 
     33 CB         25.5683   21.7583   -2.1071 C.3       2 UNK        -0.2113 
     34 N          27.3535   23.1442   -1.1713 N.am      2 UNK        -0.4145 
     35 C          28.0825   23.9257   -0.3613 C.2       1 UNK         0.5006 
     36 O          27.6575   24.3735    0.7069 O.2       1 UNK        -0.5103 
     37 C          27.8387   29.7845    3.9382 C.2       5 UNK         0.5055 
     38 O          26.6749   30.0661    4.2293 O.2       5 UNK        -0.5220 
     39 N          28.8430   30.6693    3.8654 N.am      6 UNK        -0.4450 
     40 CA         28.8031   32.1256    4.0588 C.3       6 UNK         0.0367 
     41 CB         28.0218   32.5554    5.3186 C.3       6 UNK        -0.1929 
     42 C          28.3848   32.9135    2.8029 C.2       6 UNK         0.5070 
     43 O          28.5080   34.1391    2.8108 O.2       6 UNK        -0.5237 
     44 N          27.9663   32.2252    1.7309 N.am      7 UNK        -0.4739 
     45 CA         27.9396   32.7772    0.3728 C.3       7 UNK         0.0276 
     46 CB         26.8086   32.1333   -0.4476 C.3       7 UNK        -0.1927 
     47 C          29.3158   32.5445   -0.2706 C.2       7 UNK         0.5013 
     48 O          29.9369   33.4915   -0.7544 O.2       7 UNK        -0.5193 
     49 N          29.7905   31.2962   -0.1834 N.am      8 UNK        -0.4253 
     50 CA         31.1887   30.9075   -0.3209 C.3       8 UNK         0.0242 
     51 CB         31.2493   29.5040   -0.9457 C.3       8 UNK        -0.2000 
     52 C          31.8321   30.9097    1.0758 C.2       8 UNK         0.4948 
     53 O          31.1336   30.6945    2.0725 O.2       8 UNK        -0.5275 
     54 N          33.1497   31.1482    1.1242 N.am      9 UNK        -0.4246 
     55 CA         33.9517   31.2183    2.3497 C.3       9 UNK         0.0261 
     56 CB         35.3900   31.6335    1.9942 C.3       9 UNK        -0.1959 
     57 C          33.9287   29.8900    3.1259 C.2       9 UNK         0.5033 
     58 O          34.5468   28.9184    2.6862 O.2       9 UNK        -0.5390 
     59 N          33.1841   29.8721    4.2373 N.am      10 UNK        -0.4215 
     60 CA         32.9640   28.6934    5.0703 C.3       10 UNK         0.0240 
     61 CB         31.7203   28.9206    5.9457 C.3       10 UNK        -0.1982 
     62 C          34.1829   28.3489    5.9357 C.2       10 UNK         0.4970 
     63 O          34.9298   29.2443    6.3374 O.2       10 UNK        -0.4916 
     64 N          34.3202   27.0551    6.2431 N.am      11 UNK        -0.4279 
     65 CA         35.3573   26.5025    7.1277 C.3       11 UNK         0.1003 
     66 C          35.1792   26.8447    8.6370 C.2       11 UNK         0.5709 
     67 N          34.0359   27.3570    9.0780 N.am      11 UNK        -0.7358 
     68 O          36.1028   26.6460    9.4228 O.2       11 UNK        -0.4999 
     69 C69        35.5129   24.9727    6.9276 C.3       12 UNK        -0.0954 
     70 S70        36.0138   24.5307    5.2301 S.3       12 UNK        -0.2268 
     71 C71        34.5944   23.5486    4.6513 C.3       12 UNK         0.0203 
     72 H72        31.6715   21.2761   -3.4066 H         1 UNK         0.0888 
     73 H73        31.7411   21.0045   -1.6645 H         1 UNK         0.0888 
     74 H74        30.4736   20.2397   -2.6259 H         1 UNK         0.0888 
     75 H75        30.9658   22.7434   -0.4947 H         1 UNK         0.3017 
     76 H76        29.4487   24.8776   -1.6962 H         1 UNK         0.0873 
     77 H77        29.7415   25.9881    0.5107 H         1 UNK         0.0745 
     78 H78        30.3266   24.4909    1.2011 H         1 UNK         0.0745 
     79 H79        31.8317   27.4727    1.2393 H         1 UNK         0.0705 
     80 H80        33.4831   26.9550    1.0379 H         1 UNK         0.0705 
     81 H81        34.3813   25.0216    2.3762 H         1 UNK         0.1334 
     82 H82        32.2152   23.9848    5.9303 H         1 UNK         0.1417 
     83 H83        30.4203   26.5075    2.9591 H         1 UNK         0.1562 
     84 H84        30.0570   26.0602    6.2144 H         1 UNK         0.0748 
     85 H85        29.7950   24.3640    5.9323 H         1 UNK         0.0748 
     86 H86        28.6711   27.7624    5.6519 H         1 UNK         0.0940 
     87 H87        27.0095   27.4845    5.2288 H         1 UNK         0.0940 
     88 H88        29.2397   28.2988    3.2940 H         1 UNK         0.0703 
     89 H89        26.7591   27.0990    2.6283 H         1 UNK         0.3081 
     90 H90        25.7763   28.6570   -0.0563 H         1 UNK         0.0719 
     91 H91        28.0722   26.8733   -1.0023 H         1 UNK         0.0809 
     92 H92        26.5955   27.1650   -1.9197 H         1 UNK         0.0809 
     93 H93        27.6898   28.4907   -1.5614 H         1 UNK         0.0809 
     94 H94        26.3521   25.8012    0.6553 H         1 UNK         0.2990 
     95 H95        23.9441   25.0774    2.2105 H         1 UNK         0.0690 
     96 H96        22.0318   24.0237    0.9696 H         1 UNK         0.0788 
     97 H97        22.2758   25.1578   -0.3583 H         1 UNK         0.0788 
     98 H98        21.7889   25.7424    1.2249 H         1 UNK         0.0788 
     99 H99        25.1667   23.4945    1.2979 H         1 UNK         0.2993 
    100 H100       26.0271   22.0247   -0.0330 H         1 UNK         0.0949 
    101 H101       25.5794   22.3044   -3.0515 H         1 UNK         0.0767 
    102 H102       26.2285   20.8970   -2.2117 H         1 UNK         0.0767 
    103 H103       24.5570   21.3760   -1.9622 H         1 UNK         0.0767 
    104 H104       27.7981   22.8512   -2.0373 H         1 UNK         0.3013 
    105 H105       29.7260   30.3504    3.4724 H         1 UNK         0.3121 
    106 H106       29.8448   32.4022    4.2295 H         1 UNK         0.0774 
    107 H107       28.1989   33.6083    5.5408 H         1 UNK         0.0815 
    108 H108       26.9456   32.4352    5.1939 H         1 UNK         0.0815 
    109 H109       28.3291   31.9837    6.1941 H         1 UNK         0.0815 
    110 H110       27.9284   31.2147    1.8006 H         1 UNK         0.2987 
    111 H111       27.7566   33.8536    0.4094 H         1 UNK         0.0949 
    112 H112       26.7535   32.5782   -1.4419 H         1 UNK         0.0806 
    113 H113       26.9493   31.0615   -0.5826 H         1 UNK         0.0806 
    114 H114       25.8401   32.2851    0.0290 H         1 UNK         0.0806 
    115 H115       29.2003   30.5941    0.2630 H         1 UNK         0.3010 
    116 H116       31.7166   31.6140   -0.9651 H         1 UNK         0.0829 
    117 H117       30.8418   29.5062   -1.9566 H         1 UNK         0.0813 
    118 H118       32.2760   29.1410   -1.0097 H         1 UNK         0.0813 
    119 H119       30.6791   28.7791   -0.3633 H         1 UNK         0.0813 
    120 H120       33.6497   31.2786    0.2567 H         1 UNK         0.3038 
    121 H121       33.5249   32.0014    2.9801 H         1 UNK         0.0769 
    122 H122       36.0099   31.6929    2.8898 H         1 UNK         0.0811 
    123 H123       35.4155   32.6139    1.5181 H         1 UNK         0.0811 
    124 H124       35.8628   30.9190    1.3189 H         1 UNK         0.0811 
    125 H125       32.7226   30.7221    4.5249 H         1 UNK         0.3204 
    126 H126       32.7733   27.8524    4.4067 H         1 UNK         0.0748 
    127 H127       31.8499   29.7684    6.6198 H         1 UNK         0.0771 
    128 H128       30.8378   29.1087    5.3359 H         1 UNK         0.0771 
    129 H129       31.5059   28.0457    6.5599 H         1 UNK         0.0771 
    130 H130       33.6782   26.3837    5.8477 H         1 UNK         0.2980 
    131 H131       36.3021   26.9654    6.8361 H         1 UNK         0.0545 
    132 H132       33.9406   27.5761   10.0570 H         1 UNK         0.3459 
    133 H133       33.2722   27.5281    8.4456 H         1 UNK         0.3459 
    134 H134       34.5875   24.4579    7.1912 H         1 UNK         0.0616 
    135 H135       36.2795   24.5753    7.5954 H         1 UNK         0.0616 
    136 H136       34.9199   22.9388    3.8073 H         1 UNK         0.0634 
    137 H137       34.2896   22.8459    5.4283 H         1 UNK         0.0634 
@<TRIPOS>BOND
     1    1    2 1    
     2    1   72 1    
     3    1   73 1    
     4    1   74 1    
     5    2    3 2    
     6    2    4 am   BACKBONE|DICT|INTERRES
     7    4    5 1    
     8    4   75 1    
     9    5    6 1    
    10    5   35 1    
    11    5   76 1    
    12    6    7 1    
    13    6   77 1    
    14    6   78 1    
    15    7    8 1    
    16    8    9 1    
    17    8   79 1    
    18    8   80 1    
    19    9   10 ar   
    20    9   14 ar   
    21   10   11 ar   
    22   10   81 1    
    23   11   12 ar   
    24   11   71 1    
    25   12   13 ar   
    26   12   82 1    
    27   13   14 ar   
    28   13   15 1    
    29   14   83 1    
    30   15   16 1    
    31   15   84 1    
    32   15   85 1    
    33   16   17 1    
    34   17   18 1    
    35   17   86 1    
    36   17   87 1    
    37   18   19 1    
    38   18   37 1    
    39   18   88 1    
    40   19   20 am   BACKBONE|DICT|INTERRES
    41   19   89 1    
    42   20   21 2    
    43   20   22 1    
    44   22   23 1    
    45   22   24 1    
    46   22   90 1    
    47   23   91 1    
    48   23   92 1    
    49   23   93 1    
    50   24   25 am   BACKBONE|DICT|INTERRES
    51   24   94 1    
    52   25   26 2    
    53   25   27 1    
    54   27   28 1    
    55   27   29 1    
    56   27   95 1    
    57   28   96 1    
    58   28   97 1    
    59   28   98 1    
    60   29   30 am   BACKBONE|DICT|INTERRES
    61   29   99 1    
    62   30   31 2    
    63   30   32 1    
    64   32   33 1    
    65   32   34 1    
    66   32  100 1    
    67   33  101 1    
    68   33  102 1    
    69   33  103 1    
    70   34   35 am   BACKBONE|DICT|INTERRES
    71   34  104 1    
    72   35   36 2    
    73   37   38 2    
    74   37   39 am   BACKBONE|DICT|INTERRES
    75   39   40 1    
    76   39  105 1    
    77   40   41 1    
    78   40   42 1    
    79   40  106 1    
    80   41  107 1    
    81   41  108 1    
    82   41  109 1    
    83   42   43 2    
    84   42   44 am   BACKBONE|DICT|INTERRES
    85   44   45 1    
    86   44  110 1    
    87   45   46 1    
    88   45   47 1    
    89   45  111 1    
    90   46  112 1    
    91   46  113 1    
    92   46  114 1    
    93   47   48 2    
    94   47   49 am   BACKBONE|DICT|INTERRES
    95   49   50 1    
    96   49  115 1    
    97   50   51 1    
    98   50   52 1    
    99   50  116 1    
   100   51  117 1    
   101   51  118 1    
   102   51  119 1    
   103   52   53 2    
   104   52   54 am   BACKBONE|DICT|INTERRES
   105   54   55 1    
   106   54  120 1    
   107   55   56 1    
   108   55   57 1    
   109   55  121 1    
   110   56  122 1    
   111   56  123 1    
   112   56  124 1    
   113   57   58 2    
   114   57   59 am   BACKBONE|DICT|INTERRES
   115   59   60 1    
   116   59  125 1    
   117   60   61 1    
   118   60   62 1    
   119   60  126 1    
   120   61  127 1    
   121   61  128 1    
   122   61  129 1    
   123   62   63 2    
   124   62   64 am   BACKBONE|DICT|INTERRES
   125   64   65 1    
   126   64  130 1    
   127   65   66 1    
   128   65   69 1    
   129   65  131 1    
   130   66   67 am   BACKBONE|DICT|INTERRES
   131   66   68 2    
   132   67  132 1    
   133   67  133 1    
   134   69   70 1    
   135   69  134 1    
   136   69  135 1    
   137   70   71 1    
   138   71  136 1    
   139   71  137 1    
@<TRIPOS>SUBSTRUCTURE
     1 UNK         1 GROUP             0       ****    0 ROOT    
