@<TRIPOS>MOLECULE
3R136
137   139    1
SMALL
USER_CHARGES


@<TRIPOS>ATOM
      1 CA         28.6766   20.6018    1.7930 C.3       0 UNK        -0.1979 
      2 C          29.0202   21.0624    0.3837 C.2       0 UNK         0.4864 
      3 O          28.7979   20.3215   -0.5755 O.2       0 UNK        -0.5359 
      4 N          29.5657   22.2773    0.2540 N.am      1 UNK        -0.4318 
      5 CA         29.8673   22.9366   -1.0190 C.3       1 UNK         0.0824 
      6 C6         30.9281   24.0589   -0.8486 C.3       12 UNK        -0.0944 
      7 S7         30.5524   25.2511    0.4870 S.3       12 UNK        -0.2672 
      8 C8         31.7403   24.7193    1.7604 C.3       12 UNK         0.0333 
      9 C9         31.3292   25.2194    3.1350 C.ar      12 UNK        -0.0807 
     10 C10        31.8373   26.4201    3.6360 C.ar      12 UNK        -0.0894 
     11 C11        31.4549   26.8824    4.8993 C.ar      12 UNK        -0.0804 
     12 C12        30.5537   26.1325    5.6632 C.ar      12 UNK        -0.0824 
     13 C13        30.0351   24.9312    5.1680 C.ar      12 UNK        -0.0762 
     14 C14        30.4343   24.4765    3.9086 C.ar      12 UNK        -0.0782 
     15 C15        29.0251   24.1275    5.9733 C.3       12 UNK         0.0230 
     16 S16        27.3683   24.1922    5.2157 S.3       12 UNK        -0.2608 
     17 C17        26.8715   25.9135    5.5612 C.3       12 UNK        -0.0989 
     18 CA         27.2331   26.8979    4.4203 C.3       5 UNK         0.0716 
     19 N          26.6499   26.5093    3.1329 N.am      5 UNK        -0.4135 
     20 C          26.9000   27.1125    1.9628 C.2       4 UNK         0.5031 
     21 O          27.6377   28.0928    1.8468 O.2       4 UNK        -0.5229 
     22 CA         26.1841   26.5081    0.7424 C.3       4 UNK         0.0329 
     23 CB         24.7228   26.9940    0.6525 C.3       4 UNK        -0.2001 
     24 N          26.9024   26.6981   -0.5254 N.am      4 UNK        -0.4303 
     25 C          27.0585   27.8143   -1.2583 C.2       3 UNK         0.5044 
     26 O          26.5769   28.9102   -0.9727 O.2       3 UNK        -0.5152 
     27 CA         27.8636   27.6969   -2.5715 C.3       3 UNK         0.0319 
     28 CB         29.2407   28.3698   -2.4480 C.3       3 UNK        -0.2001 
     29 N          28.0553   26.3210   -3.0336 N.am      3 UNK        -0.4354 
     30 C          27.1005   25.5400   -3.5580 C.2       2 UNK         0.4964 
     31 O          25.9577   25.9260   -3.8045 O.2       2 UNK        -0.5047 
     32 CA         27.4770   24.0709   -3.8342 C.3       2 UNK         0.0288 
     33 CB         27.8118   23.8725   -5.3217 C.3       2 UNK        -0.2113 
     34 N          28.5915   23.5687   -3.0177 N.am      2 UNK        -0.4145 
     35 C          28.5770   23.4637   -1.6803 C.2       1 UNK         0.5006 
     36 O          27.6194   23.8075   -0.9812 O.2       1 UNK        -0.5103 
     37 C          26.8407   28.3333    4.8166 C.2       5 UNK         0.5055 
     38 O          25.7040   28.7455    4.5737 O.2       5 UNK        -0.5220 
     39 N          27.7962   29.0631    5.4092 N.am      6 UNK        -0.4450 
     40 CA         27.7441   30.4674    5.8487 C.3       6 UNK         0.0367 
     41 CB         26.6243   30.7040    6.8815 C.3       6 UNK        -0.1929 
     42 C          27.6767   31.4985    4.7046 C.2       6 UNK         0.5070 
     43 O          28.2236   32.5910    4.8575 O.2       6 UNK        -0.5237 
     44 N          27.0371   31.1467    3.5821 N.am      7 UNK        -0.4739 
     45 CA         27.0605   31.9043    2.3311 C.3       7 UNK         0.0276 
     46 CB         25.9501   31.3932    1.4009 C.3       7 UNK        -0.1927 
     47 C          28.4406   31.8268    1.6565 C.2       7 UNK         0.5013 
     48 O          28.9589   32.8553    1.2184 O.2       7 UNK        -0.5193 
     49 N          29.0259   30.6217    1.6211 N.am      8 UNK        -0.4253 
     50 CA         30.4135   30.3838    1.2303 C.3       8 UNK         0.0242 
     51 CB         30.6181   28.8767    1.0121 C.3       8 UNK        -0.2000 
     52 C          31.3821   30.8798    2.3145 C.2       8 UNK         0.4948 
     53 O          31.1158   30.6948    3.5034 O.2       8 UNK        -0.5275 
     54 N          32.5189   31.4387    1.8825 N.am      9 UNK        -0.4246 
     55 CA         33.6268   31.8383    2.7584 C.3       9 UNK         0.0261 
     56 CB         34.3507   33.0400    2.1282 C.3       9 UNK        -0.1959 
     57 C          34.6234   30.6929    3.0223 C.2       9 UNK         0.5033 
     58 O          35.4975   30.8426    3.8793 O.2       9 UNK        -0.5390 
     59 N          34.4912   29.5787    2.2858 N.am      10 UNK        -0.4215 
     60 CA         35.3904   28.4173    2.2342 C.3       10 UNK         0.0240 
     61 CB         35.0419   27.5912    0.9801 C.3       10 UNK        -0.1982 
     62 C          35.4405   27.5508    3.5142 C.2       10 UNK         0.4970 
     63 O          35.5117   26.3243    3.4222 O.2       10 UNK        -0.4916 
     64 N          35.4233   28.1989    4.6787 N.am      11 UNK        -0.4279 
     65 CA         35.5872   27.6059    6.0093 C.3       11 UNK         0.1003 
     66 C          36.2400   28.5732    7.0394 C.2       11 UNK         0.5709 
     67 N          36.5762   29.8111    6.6854 N.am      11 UNK        -0.7358 
     68 O          36.4769   28.1840    8.1807 O.2       11 UNK        -0.4999 
     69 C69        34.2949   26.9091    6.5205 C.3       12 UNK        -0.0954 
     70 S70        32.9337   28.0422    6.9744 S.3       12 UNK        -0.2268 
     71 C71        32.0004   28.2057    5.4191 C.3       12 UNK         0.0203 
     72 H72        28.8945   21.3671    2.5378 H         1 UNK         0.0888 
     73 H73        27.6164   20.3591    1.8595 H         1 UNK         0.0888 
     74 H74        29.2478   19.7090    2.0461 H         1 UNK         0.0888 
     75 H75        29.6717   22.8679    1.0651 H         1 UNK         0.3017 
     76 H76        30.2891   22.1840   -1.6892 H         1 UNK         0.0873 
     77 H77        31.9011   23.6049   -0.6544 H         1 UNK         0.0745 
     78 H78        31.0598   24.6157   -1.7782 H         1 UNK         0.0745 
     79 H79        31.8070   23.6304    1.7768 H         1 UNK         0.0705 
     80 H80        32.7358   25.0829    1.5017 H         1 UNK         0.0705 
     81 H81        32.5254   26.9982    3.0364 H         1 UNK         0.1334 
     82 H82        30.2525   26.4903    6.6384 H         1 UNK         0.1417 
     83 H83        30.0291   23.5510    3.5246 H         1 UNK         0.1562 
     84 H84        28.9739   24.4770    7.0057 H         1 UNK         0.0748 
     85 H85        29.3511   23.0874    6.0195 H         1 UNK         0.0748 
     86 H86        27.3278   26.2273    6.5023 H         1 UNK         0.0940 
     87 H87        25.7938   25.9199    5.7380 H         1 UNK         0.0940 
     88 H88        28.3130   26.8839    4.2721 H         1 UNK         0.0703 
     89 H89        26.0207   25.7212    3.1566 H         1 UNK         0.3081 
     90 H90        26.1633   25.4267    0.8881 H         1 UNK         0.0719 
     91 H91        24.6577   28.0806    0.5888 H         1 UNK         0.0809 
     92 H92        24.2171   26.5745   -0.2172 H         1 UNK         0.0809 
     93 H93        24.1560   26.6926    1.5341 H         1 UNK         0.0809 
     94 H94        27.3488   25.8538   -0.8663 H         1 UNK         0.2990 
     95 H95        27.2961   28.2348   -3.3340 H         1 UNK         0.0690 
     96 H96        29.7054   28.4935   -3.4263 H         1 UNK         0.0788 
     97 H97        29.9217   27.7833   -1.8312 H         1 UNK         0.0788 
     98 H98        29.1593   29.3625   -2.0022 H         1 UNK         0.0788 
     99 H99        28.9683   25.9187   -2.8834 H         1 UNK         0.2993 
    100 H100       26.5980   23.4674   -3.5968 H         1 UNK         0.0949 
    101 H101       27.9848   22.8213   -5.5536 H         1 UNK         0.0767 
    102 H102       26.9902   24.2101   -5.9554 H         1 UNK         0.0767 
    103 H103       28.7005   24.4334   -5.6143 H         1 UNK         0.0767 
    104 H104       29.4154   23.2711   -3.5211 H         1 UNK         0.3013 
    105 H105       28.7031   28.6315    5.5184 H         1 UNK         0.3121 
    106 H106       28.6943   30.6431    6.3560 H         1 UNK         0.0774 
    107 H107       26.6841   31.7131    7.2911 H         1 UNK         0.0815 
    108 H108       25.6320   30.5948    6.4433 H         1 UNK         0.0815 
    109 H109       26.7016   30.0097    7.7181 H         1 UNK         0.0815 
    110 H110       26.5703   30.2459    3.5722 H         1 UNK         0.2987 
    111 H111       26.8599   32.9537    2.5587 H         1 UNK         0.0949 
    112 H112       26.0508   30.3256    1.2044 H         1 UNK         0.0806 
    113 H113       24.9634   31.5605    1.8327 H         1 UNK         0.0806 
    114 H114       25.9766   31.9061    0.4385 H         1 UNK         0.0806 
    115 H115       28.5053   29.8099    1.9446 H         1 UNK         0.3010 
    116 H116       30.6026   30.9097    0.2921 H         1 UNK         0.0829 
    117 H117       29.8751   28.4722    0.3282 H         1 UNK         0.0813 
    118 H118       31.6020   28.6592    0.5963 H         1 UNK         0.0813 
    119 H119       30.5219   28.3206    1.9456 H         1 UNK         0.0813 
    120 H120       32.6534   31.5770    0.8902 H         1 UNK         0.3038 
    121 H121       33.2303   32.1524    3.7265 H         1 UNK         0.0769 
    122 H122       33.6713   33.8801    1.9826 H         1 UNK         0.0811 
    123 H123       34.7883   32.7891    1.1611 H         1 UNK         0.0811 
    124 H124       35.1604   33.3895    2.7707 H         1 UNK         0.0811 
    125 H125       33.7202   29.5583    1.6370 H         1 UNK         0.3204 
    126 H126       36.4029   28.8031    2.0988 H         1 UNK         0.0748 
    127 H127       35.1013   28.1971    0.0757 H         1 UNK         0.0771 
    128 H128       35.7348   26.7589    0.8479 H         1 UNK         0.0771 
    129 H129       34.0365   27.1733    1.0382 H         1 UNK         0.0771 
    130 H130       35.3825   29.2136    4.6415 H         1 UNK         0.2980 
    131 H131       36.3361   26.8198    5.8963 H         1 UNK         0.0545 
    132 H132       36.4057   30.1728    5.7576 H         1 UNK         0.3459 
    133 H133       37.0073   30.4065    7.3748 H         1 UNK         0.3459 
    134 H134       34.5292   26.3170    7.4065 H         1 UNK         0.0616 
    135 H135       33.9410   26.1864    5.7849 H         1 UNK         0.0616 
    136 H136       32.6381   28.6839    4.6751 H         1 UNK         0.0634 
    137 H137       31.1668   28.8885    5.5861 H         1 UNK         0.0634 
@<TRIPOS>BOND
     1    1    2 1    
     2    1   72 1    
     3    1   73 1    
     4    1   74 1    
     5    2    3 2    
     6    2    4 am   BACKBONE|DICT|INTERRES
     7    4    5 1    
     8    4   75 1    
     9    5    6 1    
    10    5   35 1    
    11    5   76 1    
    12    6    7 1    
    13    6   77 1    
    14    6   78 1    
    15    7    8 1    
    16    8    9 1    
    17    8   79 1    
    18    8   80 1    
    19    9   10 ar   
    20    9   14 ar   
    21   10   11 ar   
    22   10   81 1    
    23   11   12 ar   
    24   11   71 1    
    25   12   13 ar   
    26   12   82 1    
    27   13   14 ar   
    28   13   15 1    
    29   14   83 1    
    30   15   16 1    
    31   15   84 1    
    32   15   85 1    
    33   16   17 1    
    34   17   18 1    
    35   17   86 1    
    36   17   87 1    
    37   18   19 1    
    38   18   37 1    
    39   18   88 1    
    40   19   20 am   BACKBONE|DICT|INTERRES
    41   19   89 1    
    42   20   21 2    
    43   20   22 1    
    44   22   23 1    
    45   22   24 1    
    46   22   90 1    
    47   23   91 1    
    48   23   92 1    
    49   23   93 1    
    50   24   25 am   BACKBONE|DICT|INTERRES
    51   24   94 1    
    52   25   26 2    
    53   25   27 1    
    54   27   28 1    
    55   27   29 1    
    56   27   95 1    
    57   28   96 1    
    58   28   97 1    
    59   28   98 1    
    60   29   30 am   BACKBONE|DICT|INTERRES
    61   29   99 1    
    62   30   31 2    
    63   30   32 1    
    64   32   33 1    
    65   32   34 1    
    66   32  100 1    
    67   33  101 1    
    68   33  102 1    
    69   33  103 1    
    70   34   35 am   BACKBONE|DICT|INTERRES
    71   34  104 1    
    72   35   36 2    
    73   37   38 2    
    74   37   39 am   BACKBONE|DICT|INTERRES
    75   39   40 1    
    76   39  105 1    
    77   40   41 1    
    78   40   42 1    
    79   40  106 1    
    80   41  107 1    
    81   41  108 1    
    82   41  109 1    
    83   42   43 2    
    84   42   44 am   BACKBONE|DICT|INTERRES
    85   44   45 1    
    86   44  110 1    
    87   45   46 1    
    88   45   47 1    
    89   45  111 1    
    90   46  112 1    
    91   46  113 1    
    92   46  114 1    
    93   47   48 2    
    94   47   49 am   BACKBONE|DICT|INTERRES
    95   49   50 1    
    96   49  115 1    
    97   50   51 1    
    98   50   52 1    
    99   50  116 1    
   100   51  117 1    
   101   51  118 1    
   102   51  119 1    
   103   52   53 2    
   104   52   54 am   BACKBONE|DICT|INTERRES
   105   54   55 1    
   106   54  120 1    
   107   55   56 1    
   108   55   57 1    
   109   55  121 1    
   110   56  122 1    
   111   56  123 1    
   112   56  124 1    
   113   57   58 2    
   114   57   59 am   BACKBONE|DICT|INTERRES
   115   59   60 1    
   116   59  125 1    
   117   60   61 1    
   118   60   62 1    
   119   60  126 1    
   120   61  127 1    
   121   61  128 1    
   122   61  129 1    
   123   62   63 2    
   124   62   64 am   BACKBONE|DICT|INTERRES
   125   64   65 1    
   126   64  130 1    
   127   65   66 1    
   128   65   69 1    
   129   65  131 1    
   130   66   67 am   BACKBONE|DICT|INTERRES
   131   66   68 2    
   132   67  132 1    
   133   67  133 1    
   134   69   70 1    
   135   69  134 1    
   136   69  135 1    
   137   70   71 1    
   138   71  136 1    
   139   71  137 1    
@<TRIPOS>SUBSTRUCTURE
     1 UNK         1 GROUP             0       ****    0 ROOT    
