@<TRIPOS>MOLECULE
3R136
137   139    1
SMALL
USER_CHARGES


@<TRIPOS>ATOM
      1 CA         27.5007   17.9746   -2.5466 C.3       0 UNK        -0.1979 
      2 C          27.5061   19.4539   -2.1893 C.2       0 UNK         0.4864 
      3 O          27.0654   20.2781   -2.9924 O.2       0 UNK        -0.5359 
      4 N          28.0086   19.7962   -0.9957 N.am      1 UNK        -0.4318 
      5 CA         28.0294   21.1602   -0.4587 C.3       1 UNK         0.0824 
      6 C6         29.0489   21.2840    0.7037 C.3       12 UNK        -0.0944 
      7 S7         29.6229   22.9963    0.9537 S.3       12 UNK        -0.2672 
      8 C8         31.0075   22.7144    2.0991 C.3       12 UNK         0.0333 
      9 C9         31.7202   24.0205    2.4072 C.ar      12 UNK        -0.0807 
     10 C10        31.4570   24.7125    3.5935 C.ar      12 UNK        -0.0894 
     11 C11        32.0719   25.9429    3.8453 C.ar      12 UNK        -0.0804 
     12 C12        32.9646   26.4713    2.9077 C.ar      12 UNK        -0.0824 
     13 C13        33.2547   25.7744    1.7327 C.ar      12 UNK        -0.0762 
     14 C14        32.6324   24.5473    1.4889 C.ar      12 UNK        -0.0782 
     15 C15        34.2411   26.3518    0.7301 C.3       12 UNK         0.0230 
     16 S16        33.4958   27.6859   -0.2573 S.3       12 UNK        -0.2608 
     17 C17        32.3092   26.7721   -1.3120 C.3       12 UNK        -0.0989 
     18 CA         30.8288   27.1869   -1.1077 C.3       5 UNK         0.0716 
     19 N          30.3936   27.0079    0.2832 N.am      5 UNK        -0.4135 
     20 C          29.1157   26.9583    0.6792 C.2       4 UNK         0.5031 
     21 O          28.1537   26.9534   -0.0953 O.2       4 UNK        -0.5229 
     22 CA         28.8713   26.9348    2.1931 C.3       4 UNK         0.0329 
     23 CB         29.2745   28.2701    2.8512 C.3       4 UNK        -0.2001 
     24 N          27.4602   26.6531    2.4205 N.am      4 UNK        -0.4303 
     25 C          26.8861   26.2845    3.5713 C.2       3 UNK         0.5044 
     26 O          27.4791   26.2031    4.6474 O.2       3 UNK        -0.5152 
     27 CA         25.3908   25.9195    3.4982 C.3       3 UNK         0.0319 
     28 CB         24.5173   27.1704    3.6873 C.3       3 UNK        -0.2001 
     29 N          25.0393   25.2619    2.2342 N.am      3 UNK        -0.4354 
     30 C          25.4588   24.0373    1.8838 C.2       2 UNK         0.4964 
     31 O          26.0693   23.2918    2.6528 O.2       2 UNK        -0.5047 
     32 CA         25.1691   23.5715    0.4421 C.3       2 UNK         0.0288 
     33 CB         24.7600   24.7126   -0.5136 C.3       2 UNK        -0.2113 
     34 N          26.3592   22.9129   -0.0974 N.am      2 UNK        -0.4145 
     35 C          26.6153   21.6012   -0.0205 C.2       1 UNK         0.5006 
     36 O          25.8107   20.7636    0.4004 O.2       1 UNK        -0.5103 
     37 C          30.5737   28.6166   -1.6408 C.2       5 UNK         0.5055 
     38 O          30.4970   28.8009   -2.8571 O.2       5 UNK        -0.5220 
     39 N          30.4699   29.5929   -0.7317 N.am      6 UNK        -0.4450 
     40 CA         30.2511   31.0101   -1.0039 C.3       6 UNK         0.0367 
     41 CB         31.4561   31.7937   -0.4476 C.3       6 UNK        -0.1929 
     42 C          28.9380   31.4677   -0.3498 C.2       6 UNK         0.5070 
     43 O          28.2478   30.6725    0.2905 O.2       6 UNK        -0.5237 
     44 N          28.6238   32.7607   -0.5007 N.am      7 UNK        -0.4739 
     45 CA         27.4604   33.4185    0.1092 C.3       7 UNK         0.0276 
     46 CB         27.2299   34.7668   -0.5946 C.3       7 UNK        -0.1927 
     47 C          27.5741   33.6174    1.6361 C.2       7 UNK         0.5013 
     48 O          26.5835   33.9920    2.2656 O.2       7 UNK        -0.5193 
     49 N          28.7632   33.3779    2.1995 N.am      8 UNK        -0.4253 
     50 CA         29.0673   33.4145    3.6257 C.3       8 UNK         0.0242 
     51 CB         29.9236   34.6575    3.9226 C.3       8 UNK        -0.2000 
     52 C          29.8232   32.1335    3.9982 C.2       8 UNK         0.4948 
     53 O          30.3774   31.4652    3.1189 O.2       8 UNK        -0.5275 
     54 N          29.8606   31.8263    5.3010 N.am      9 UNK        -0.4246 
     55 CA         30.5400   30.6662    5.8838 C.3       9 UNK         0.0261 
     56 CB         30.0040   30.4308    7.3079 C.3       9 UNK        -0.1959 
     57 C          32.0744   30.8057    5.8487 C.2       9 UNK         0.5033 
     58 O          32.7105   30.9477    6.8946 O.2       9 UNK        -0.5390 
     59 N          32.6406   30.7472    4.6363 N.am      10 UNK        -0.4215 
     60 CA         34.0708   30.8745    4.3265 C.3       10 UNK         0.0240 
     61 CB         34.2547   30.7788    2.8021 C.3       10 UNK        -0.1982 
     62 C          34.9897   29.8648    5.0434 C.2       10 UNK         0.4970 
     63 O          36.1769   30.1462    5.2101 O.2       10 UNK        -0.4916 
     64 N          34.4277   28.7235    5.4577 N.am      11 UNK        -0.4279 
     65 CA         35.0787   27.7046    6.2885 C.3       11 UNK         0.1003 
     66 C          35.2140   28.0808    7.7947 C.2       11 UNK         0.5709 
     67 N          34.5992   29.1545    8.2798 N.am      11 UNK        -0.7358 
     68 O          35.9095   27.3904    8.5361 O.2       11 UNK        -0.4999 
     69 C69        34.4363   26.3076    6.0725 C.3       12 UNK        -0.0954 
     70 S70        32.6789   26.1672    6.5706 S.3       12 UNK        -0.2268 
     71 C71        31.7403   26.7231    5.1084 C.3       12 UNK         0.0203 
     72 H72        27.9319   17.3621   -1.7549 H         1 UNK         0.0888 
     73 H73        26.4800   17.6347   -2.7200 H         1 UNK         0.0888 
     74 H74        28.0759   17.8059   -3.4566 H         1 UNK         0.0888 
     75 H75        28.3221   19.0720   -0.3655 H         1 UNK         0.3017 
     76 H76        28.3527   21.8145   -1.2720 H         1 UNK         0.0873 
     77 H77        28.6422   20.8945    1.6396 H         1 UNK         0.0745 
     78 H78        29.9320   20.6811    0.4845 H         1 UNK         0.0745 
     79 H79        31.7110   22.0058    1.6590 H         1 UNK         0.0705 
     80 H80        30.6327   22.2548    3.0152 H         1 UNK         0.0705 
     81 H81        30.7514   24.3104    4.3081 H         1 UNK         0.1334 
     82 H82        33.4419   27.4237    3.0902 H         1 UNK         0.1417 
     83 H83        32.8417   24.0061    0.5761 H         1 UNK         0.1562 
     84 H84        34.6255   25.5756    0.0664 H         1 UNK         0.0748 
     85 H85        35.1059   26.7504    1.2629 H         1 UNK         0.0748 
     86 H86        32.4101   25.7009   -1.1374 H         1 UNK         0.0940 
     87 H87        32.6023   26.9137   -2.3543 H         1 UNK         0.0940 
     88 H88        30.2209   26.5203   -1.7236 H         1 UNK         0.0703 
     89 H89        31.1323   26.9611    0.9714 H         1 UNK         0.3081 
     90 H90        29.4490   26.1165    2.6177 H         1 UNK         0.0719 
     91 H91        30.3315   28.4904    2.6999 H         1 UNK         0.0809 
     92 H92        29.1048   28.2491    3.9267 H         1 UNK         0.0809 
     93 H93        28.7047   29.1065    2.4451 H         1 UNK         0.0809 
     94 H94        26.9095   26.6731    1.5706 H         1 UNK         0.2990 
     95 H95        25.1768   25.2271    4.3153 H         1 UNK         0.0690 
     96 H96        23.4575   26.9154    3.7060 H         1 UNK         0.0788 
     97 H97        24.6748   27.8997    2.8916 H         1 UNK         0.0788 
     98 H98        24.7470   27.6650    4.6323 H         1 UNK         0.0788 
     99 H99        24.5265   25.8097    1.5581 H         1 UNK         0.2993 
    100 H100       24.3421   22.8600    0.4945 H         1 UNK         0.0949 
    101 H101       23.8181   25.1714   -0.2103 H         1 UNK         0.0767 
    102 H102       25.5181   25.4961   -0.5637 H         1 UNK         0.0767 
    103 H103       24.6112   24.3366   -1.5263 H         1 UNK         0.0767 
    104 H104       27.1051   23.5244   -0.3983 H         1 UNK         0.3013 
    105 H105       30.4560   29.3359    0.2441 H         1 UNK         0.3121 
    106 H106       30.1703   31.1895   -2.0780 H         1 UNK         0.0774 
    107 H107       31.3901   32.8564   -0.6824 H         1 UNK         0.0815 
    108 H108       31.5338   31.7002    0.6364 H         1 UNK         0.0815 
    109 H109       32.3909   31.4318   -0.8766 H         1 UNK         0.0815 
    110 H110       29.2376   33.3502   -1.0454 H         1 UNK         0.2987 
    111 H111       26.5847   32.7886   -0.0636 H         1 UNK         0.0949 
    112 H112       27.0714   34.6350   -1.6651 H         1 UNK         0.0806 
    113 H113       26.3456   35.2689   -0.1994 H         1 UNK         0.0806 
    114 H114       28.0752   35.4427   -0.4590 H         1 UNK         0.0806 
    115 H115       29.4914   32.9770    1.6245 H         1 UNK         0.3010 
    116 H116       28.1465   33.4529    4.2118 H         1 UNK         0.0829 
    117 H117       29.3996   35.5724    3.6452 H         1 UNK         0.0813 
    118 H118       30.1604   34.7311    4.9847 H         1 UNK         0.0813 
    119 H119       30.8685   34.6359    3.3776 H         1 UNK         0.0813 
    120 H120       29.4122   32.4517    5.9553 H         1 UNK         0.3038 
    121 H121       30.2833   29.7873    5.2907 H         1 UNK         0.0769 
    122 H122       30.1990   31.2827    7.9607 H         1 UNK         0.0811 
    123 H123       30.4751   29.5578    7.7624 H         1 UNK         0.0811 
    124 H124       28.9290   30.2496    7.3030 H         1 UNK         0.0811 
    125 H125       32.0007   30.7427    3.8449 H         1 UNK         0.3204 
    126 H126       34.3813   31.8705    4.6480 H         1 UNK         0.0748 
    127 H127       35.3036   30.8934    2.5250 H         1 UNK         0.0771 
    128 H128       33.9178   29.8175    2.4119 H         1 UNK         0.0771 
    129 H129       33.6988   31.5618    2.2855 H         1 UNK         0.0771 
    130 H130       33.4394   28.5999    5.3143 H         1 UNK         0.2980 
    131 H131       36.1068   27.6217    5.9311 H         1 UNK         0.0545 
    132 H132       34.7088   29.3799    9.2553 H         1 UNK         0.3459 
    133 H133       34.0108   29.7395    7.6943 H         1 UNK         0.3459 
    134 H134       34.5511   26.0030    5.0335 H         1 UNK         0.0616 
    135 H135       34.9922   25.5583    6.6387 H         1 UNK         0.0616 
    136 H136       31.8998   27.7883    4.9494 H         1 UNK         0.0634 
    137 H137       30.6760   26.6171    5.3256 H         1 UNK         0.0634 
@<TRIPOS>BOND
     1    1    2 1    
     2    1   72 1    
     3    1   73 1    
     4    1   74 1    
     5    2    3 2    
     6    2    4 am   BACKBONE|DICT|INTERRES
     7    4    5 1    
     8    4   75 1    
     9    5    6 1    
    10    5   35 1    
    11    5   76 1    
    12    6    7 1    
    13    6   77 1    
    14    6   78 1    
    15    7    8 1    
    16    8    9 1    
    17    8   79 1    
    18    8   80 1    
    19    9   10 ar   
    20    9   14 ar   
    21   10   11 ar   
    22   10   81 1    
    23   11   12 ar   
    24   11   71 1    
    25   12   13 ar   
    26   12   82 1    
    27   13   14 ar   
    28   13   15 1    
    29   14   83 1    
    30   15   16 1    
    31   15   84 1    
    32   15   85 1    
    33   16   17 1    
    34   17   18 1    
    35   17   86 1    
    36   17   87 1    
    37   18   19 1    
    38   18   37 1    
    39   18   88 1    
    40   19   20 am   BACKBONE|DICT|INTERRES
    41   19   89 1    
    42   20   21 2    
    43   20   22 1    
    44   22   23 1    
    45   22   24 1    
    46   22   90 1    
    47   23   91 1    
    48   23   92 1    
    49   23   93 1    
    50   24   25 am   BACKBONE|DICT|INTERRES
    51   24   94 1    
    52   25   26 2    
    53   25   27 1    
    54   27   28 1    
    55   27   29 1    
    56   27   95 1    
    57   28   96 1    
    58   28   97 1    
    59   28   98 1    
    60   29   30 am   BACKBONE|DICT|INTERRES
    61   29   99 1    
    62   30   31 2    
    63   30   32 1    
    64   32   33 1    
    65   32   34 1    
    66   32  100 1    
    67   33  101 1    
    68   33  102 1    
    69   33  103 1    
    70   34   35 am   BACKBONE|DICT|INTERRES
    71   34  104 1    
    72   35   36 2    
    73   37   38 2    
    74   37   39 am   BACKBONE|DICT|INTERRES
    75   39   40 1    
    76   39  105 1    
    77   40   41 1    
    78   40   42 1    
    79   40  106 1    
    80   41  107 1    
    81   41  108 1    
    82   41  109 1    
    83   42   43 2    
    84   42   44 am   BACKBONE|DICT|INTERRES
    85   44   45 1    
    86   44  110 1    
    87   45   46 1    
    88   45   47 1    
    89   45  111 1    
    90   46  112 1    
    91   46  113 1    
    92   46  114 1    
    93   47   48 2    
    94   47   49 am   BACKBONE|DICT|INTERRES
    95   49   50 1    
    96   49  115 1    
    97   50   51 1    
    98   50   52 1    
    99   50  116 1    
   100   51  117 1    
   101   51  118 1    
   102   51  119 1    
   103   52   53 2    
   104   52   54 am   BACKBONE|DICT|INTERRES
   105   54   55 1    
   106   54  120 1    
   107   55   56 1    
   108   55   57 1    
   109   55  121 1    
   110   56  122 1    
   111   56  123 1    
   112   56  124 1    
   113   57   58 2    
   114   57   59 am   BACKBONE|DICT|INTERRES
   115   59   60 1    
   116   59  125 1    
   117   60   61 1    
   118   60   62 1    
   119   60  126 1    
   120   61  127 1    
   121   61  128 1    
   122   61  129 1    
   123   62   63 2    
   124   62   64 am   BACKBONE|DICT|INTERRES
   125   64   65 1    
   126   64  130 1    
   127   65   66 1    
   128   65   69 1    
   129   65  131 1    
   130   66   67 am   BACKBONE|DICT|INTERRES
   131   66   68 2    
   132   67  132 1    
   133   67  133 1    
   134   69   70 1    
   135   69  134 1    
   136   69  135 1    
   137   70   71 1    
   138   71  136 1    
   139   71  137 1    
@<TRIPOS>SUBSTRUCTURE
     1 UNK         1 GROUP             0       ****    0 ROOT    
