@<TRIPOS>MOLECULE
3R136
137   139    1
SMALL
USER_CHARGES


@<TRIPOS>ATOM
      1 CA         27.0847   23.7163    3.5993 C.3       0 UNK        -0.1979 
      2 C          27.9373   23.3322    2.4010 C.2       0 UNK         0.4864 
      3 O          28.4599   24.2183    1.7201 O.2       0 UNK        -0.5359 
      4 N          28.0589   22.0242    2.1304 N.am      1 UNK        -0.4318 
      5 CA         28.8341   21.3664    1.0620 C.3       1 UNK         0.0824 
      6 C6         30.3681   21.5861    1.1650 C.3       12 UNK        -0.0944 
      7 S7         31.0469   20.8622    2.6991 S.3       12 UNK        -0.2672 
      8 C8         32.6997   21.6400    2.7908 C.3       12 UNK         0.0333 
      9 C9         32.7564   23.0309    3.4300 C.ar      12 UNK        -0.0807 
     10 C10        34.0080   23.5569    3.7730 C.ar      12 UNK        -0.0894 
     11 C11        34.1223   24.8351    4.3311 C.ar      12 UNK        -0.0804 
     12 C12        32.9689   25.5880    4.5647 C.ar      12 UNK        -0.0824 
     13 C13        31.7191   25.0946    4.1907 C.ar      12 UNK        -0.0762 
     14 C14        31.6152   23.8135    3.6459 C.ar      12 UNK        -0.0782 
     15 C15        30.5044   25.9985    4.2340 C.3       12 UNK         0.0230 
     16 S16        29.5712   25.9397    5.7933 S.3       12 UNK        -0.2608 
     17 C17        28.1770   27.1231    5.5583 C.3       12 UNK        -0.0989 
     18 CA         28.4069   28.2730    4.5391 C.3       5 UNK         0.0716 
     19 N          28.4150   27.8204    3.1445 N.am      5 UNK        -0.4135 
     20 C          29.1002   28.4208    2.1619 C.2       4 UNK         0.5031 
     21 O          29.7963   29.4225    2.3335 O.2       4 UNK        -0.5229 
     22 CA         29.0265   27.7851    0.7661 C.3       4 UNK         0.0329 
     23 CB         30.3241   27.0265    0.4484 C.3       4 UNK        -0.2001 
     24 N          27.9020   26.8630    0.6091 N.am      4 UNK        -0.4303 
     25 C          26.6319   27.2296    0.3907 C.2       3 UNK         0.5044 
     26 O          26.2552   28.4019    0.4207 O.2       3 UNK        -0.5152 
     27 CA         25.6194   26.0947    0.1191 C.3       3 UNK         0.0319 
     28 CB         24.4048   26.5689   -0.7063 C.3       3 UNK        -0.2001 
     29 N          26.2302   24.8956   -0.4787 N.am      3 UNK        -0.4354 
     30 C          26.8815   24.8047   -1.6520 C.2       2 UNK         0.4964 
     31 O          26.9739   25.7295   -2.4601 O.2       2 UNK        -0.5047 
     32 CA         27.5893   23.4669   -1.9354 C.3       2 UNK         0.0288 
     33 CB         28.6814   23.5759   -3.0185 C.3       2 UNK        -0.2113 
     34 N          28.1698   22.9443   -0.6984 N.am      2 UNK        -0.4145 
     35 C          28.3019   21.6601   -0.3586 C.2       1 UNK         0.5006 
     36 O          27.9986   20.7237   -1.0999 O.2       1 UNK        -0.5103 
     37 C          27.4177   29.4424    4.7097 C.2       5 UNK         0.5055 
     38 O          27.6993   30.3554    5.4866 O.2       5 UNK        -0.5220 
     39 N          26.3359   29.4512    3.9131 N.am      6 UNK        -0.4450 
     40 CA         25.4159   30.5834    3.7615 C.3       6 UNK         0.0367 
     41 CB         24.1727   30.1278    2.9808 C.3       6 UNK        -0.1929 
     42 C          26.0712   31.7965    3.0726 C.2       6 UNK         0.5070 
     43 O          25.6505   32.9274    3.3122 O.2       6 UNK        -0.5237 
     44 N          27.1200   31.5496    2.2746 N.am      7 UNK        -0.4739 
     45 CA         27.9748   32.5568    1.6391 C.3       7 UNK         0.0276 
     46 CB         28.4857   31.9999    0.2968 C.3       7 UNK        -0.1927 
     47 C          29.1313   33.0191    2.5541 C.2       7 UNK         0.5013 
     48 O          30.1664   33.4506    2.0451 O.2       7 UNK        -0.5193 
     49 N          28.9346   32.9287    3.8792 N.am      8 UNK        -0.4253 
     50 CA         29.8504   33.3218    4.9566 C.3       8 UNK         0.0242 
     51 CB         30.0914   34.8474    4.9492 C.3       8 UNK        -0.2000 
     52 C          31.1525   32.4991    4.9683 C.2       8 UNK         0.4948 
     53 O          32.2392   33.0689    5.0836 O.2       8 UNK        -0.5275 
     54 N          31.0004   31.1693    4.8697 N.am      9 UNK        -0.4246 
     55 CA         32.0574   30.1487    4.8814 C.3       9 UNK         0.0261 
     56 CB         32.7427   30.0757    6.2623 C.3       9 UNK        -0.1959 
     57 C          33.0507   30.3193    3.7189 C.2       9 UNK         0.5033 
     58 O          34.2515   30.4845    3.9419 O.2       9 UNK        -0.5390 
     59 N          32.5190   30.2743    2.4905 N.am      10 UNK        -0.4215 
     60 CA         33.2954   30.3711    1.2506 C.3       10 UNK         0.0240 
     61 CB         32.3441   30.7028    0.0885 C.3       10 UNK        -0.1982 
     62 C          34.1276   29.1093    0.9413 C.2       10 UNK         0.4970 
     63 O          35.1094   29.2099    0.2040 O.2       10 UNK        -0.4916 
     64 N          33.7232   27.9622    1.5055 N.am      11 UNK        -0.4279 
     65 CA         34.3184   26.6265    1.3244 C.3       11 UNK         0.1003 
     66 C          34.2632   26.1138   -0.1487 C.2       11 UNK         0.5709 
     67 N          35.0474   25.1052   -0.5078 N.am      11 UNK        -0.7358 
     68 O          33.4724   26.5831   -0.9650 O.2       11 UNK        -0.4999 
     69 C69        35.7224   26.4820    1.9933 C.3       12 UNK        -0.0954 
     70 S70        35.7677   27.0026    3.7448 S.3       12 UNK        -0.2268 
     71 C71        35.4920   25.4298    4.6309 C.3       12 UNK         0.0203 
     72 H72        27.7227   24.0245    4.4259 H         1 UNK         0.0888 
     73 H73        26.4253   24.5454    3.3456 H         1 UNK         0.0888 
     74 H74        26.4662   22.8861    3.9394 H         1 UNK         0.0888 
     75 H75        27.5735   21.3745    2.7335 H         1 UNK         0.3017 
     76 H76        28.6598   20.2992    1.2121 H         1 UNK         0.0873 
     77 H77        30.8808   21.1109    0.3263 H         1 UNK         0.0745 
     78 H78        30.6169   22.6471    1.1113 H         1 UNK         0.0745 
     79 H79        33.3422   20.9700    3.3641 H         1 UNK         0.0705 
     80 H80        33.1273   21.6903    1.7884 H         1 UNK         0.0705 
     81 H81        34.9000   22.9741    3.5861 H         1 UNK         0.1334 
     82 H82        33.0549   26.5863    4.9722 H         1 UNK         0.1417 
     83 H83        30.6403   23.4534    3.3565 H         1 UNK         0.1562 
     84 H84        29.8401   25.7108    3.4211 H         1 UNK         0.0748 
     85 H85        30.8342   27.0174    4.0387 H         1 UNK         0.0748 
     86 H86        27.9697   27.5410    6.5458 H         1 UNK         0.0940 
     87 H87        27.2840   26.5548    5.2926 H         1 UNK         0.0940 
     88 H88        29.3837   28.6943    4.7708 H         1 UNK         0.0703 
     89 H89        27.8969   26.9828    2.9245 H         1 UNK         0.3081 
     90 H90        28.9173   28.5961    0.0429 H         1 UNK         0.0719 
     91 H91        31.1876   27.6855    0.5108 H         1 UNK         0.0809 
     92 H92        30.3079   26.6234   -0.5645 H         1 UNK         0.0809 
     93 H93        30.4942   26.1945    1.1325 H         1 UNK         0.0809 
     94 H94        28.1177   25.8737    0.6731 H         1 UNK         0.2990 
     95 H95        25.2488   25.7880    1.0981 H         1 UNK         0.0690 
     96 H96        23.6977   25.7568   -0.8748 H         1 UNK         0.0788 
     97 H97        24.7039   26.9613   -1.6787 H         1 UNK         0.0788 
     98 H98        23.8657   27.3636   -0.1890 H         1 UNK         0.0788 
     99 H99        26.2005   24.0661    0.0973 H         1 UNK         0.2993 
    100 H100       26.8179   22.7791   -2.2887 H         1 UNK         0.0949 
    101 H101       29.1461   22.6090   -3.2123 H         1 UNK         0.0767 
    102 H102       28.2652   23.9277   -3.9634 H         1 UNK         0.0767 
    103 H103       29.4674   24.2728   -2.7247 H         1 UNK         0.0767 
    104 H104       28.4187   23.6263    0.0164 H         1 UNK         0.3013 
    105 H105       26.1895   28.6735    3.2868 H         1 UNK         0.3121 
    106 H106       25.1002   30.9004    4.7580 H         1 UNK         0.0774 
    107 H107       24.4261   29.7964    1.9729 H         1 UNK         0.0815 
    108 H108       23.4545   30.9432    2.8833 H         1 UNK         0.0815 
    109 H109       23.6626   29.3082    3.4870 H         1 UNK         0.0815 
    110 H110       27.3994   30.5886    2.1423 H         1 UNK         0.2987 
    111 H111       27.3745   33.4432    1.4228 H         1 UNK         0.0949 
    112 H112       29.1708   31.1648    0.4394 H         1 UNK         0.0806 
    113 H113       27.6635   31.6564   -0.3312 H         1 UNK         0.0806 
    114 H114       29.0223   32.7648   -0.2660 H         1 UNK         0.0806 
    115 H115       28.0532   32.5388    4.1851 H         1 UNK         0.3010 
    116 H116       29.3375   33.0805    5.8892 H         1 UNK         0.0829 
    117 H117       30.6466   35.1672    4.0669 H         1 UNK         0.0813 
    118 H118       29.1512   35.3982    4.9724 H         1 UNK         0.0813 
    119 H119       30.6677   35.1550    5.8227 H         1 UNK         0.0813 
    120 H120       30.0574   30.8267    4.7476 H         1 UNK         0.3038 
    121 H121       31.5733   29.1874    4.7184 H         1 UNK         0.0769 
    122 H122       33.4698   29.2630    6.2926 H         1 UNK         0.0811 
    123 H123       33.2766   30.9959    6.5016 H         1 UNK         0.0811 
    124 H124       32.0180   29.8917    7.0553 H         1 UNK         0.0811 
    125 H125       31.5134   30.1357    2.3981 H         1 UNK         0.3204 
    126 H126       33.9974   31.2010    1.3564 H         1 UNK         0.0748 
    127 H127       32.8914   30.7982   -0.8503 H         1 UNK         0.0771 
    128 H128       31.5865   29.9322   -0.0520 H         1 UNK         0.0771 
    129 H129       31.8285   31.6484    0.2601 H         1 UNK         0.0771 
    130 H130       32.9049   27.9943    2.0910 H         1 UNK         0.2980 
    131 H131       33.6380   25.9558    1.8458 H         1 UNK         0.0545 
    132 H132       34.9952   24.7624   -1.4540 H         1 UNK         0.3459 
    133 H133       35.6912   24.6851    0.1427 H         1 UNK         0.3459 
    134 H134       36.0724   25.4502    1.9448 H         1 UNK         0.0616 
    135 H135       36.4582   27.0771    1.4502 H         1 UNK         0.0616 
    136 H136       36.2899   24.7314    4.3738 H         1 UNK         0.0634 
    137 H137       35.5720   25.6112    5.7034 H         1 UNK         0.0634 
@<TRIPOS>BOND
     1    1    2 1    
     2    1   72 1    
     3    1   73 1    
     4    1   74 1    
     5    2    3 2    
     6    2    4 am   BACKBONE|DICT|INTERRES
     7    4    5 1    
     8    4   75 1    
     9    5    6 1    
    10    5   35 1    
    11    5   76 1    
    12    6    7 1    
    13    6   77 1    
    14    6   78 1    
    15    7    8 1    
    16    8    9 1    
    17    8   79 1    
    18    8   80 1    
    19    9   10 ar   
    20    9   14 ar   
    21   10   11 ar   
    22   10   81 1    
    23   11   12 ar   
    24   11   71 1    
    25   12   13 ar   
    26   12   82 1    
    27   13   14 ar   
    28   13   15 1    
    29   14   83 1    
    30   15   16 1    
    31   15   84 1    
    32   15   85 1    
    33   16   17 1    
    34   17   18 1    
    35   17   86 1    
    36   17   87 1    
    37   18   19 1    
    38   18   37 1    
    39   18   88 1    
    40   19   20 am   BACKBONE|DICT|INTERRES
    41   19   89 1    
    42   20   21 2    
    43   20   22 1    
    44   22   23 1    
    45   22   24 1    
    46   22   90 1    
    47   23   91 1    
    48   23   92 1    
    49   23   93 1    
    50   24   25 am   BACKBONE|DICT|INTERRES
    51   24   94 1    
    52   25   26 2    
    53   25   27 1    
    54   27   28 1    
    55   27   29 1    
    56   27   95 1    
    57   28   96 1    
    58   28   97 1    
    59   28   98 1    
    60   29   30 am   BACKBONE|DICT|INTERRES
    61   29   99 1    
    62   30   31 2    
    63   30   32 1    
    64   32   33 1    
    65   32   34 1    
    66   32  100 1    
    67   33  101 1    
    68   33  102 1    
    69   33  103 1    
    70   34   35 am   BACKBONE|DICT|INTERRES
    71   34  104 1    
    72   35   36 2    
    73   37   38 2    
    74   37   39 am   BACKBONE|DICT|INTERRES
    75   39   40 1    
    76   39  105 1    
    77   40   41 1    
    78   40   42 1    
    79   40  106 1    
    80   41  107 1    
    81   41  108 1    
    82   41  109 1    
    83   42   43 2    
    84   42   44 am   BACKBONE|DICT|INTERRES
    85   44   45 1    
    86   44  110 1    
    87   45   46 1    
    88   45   47 1    
    89   45  111 1    
    90   46  112 1    
    91   46  113 1    
    92   46  114 1    
    93   47   48 2    
    94   47   49 am   BACKBONE|DICT|INTERRES
    95   49   50 1    
    96   49  115 1    
    97   50   51 1    
    98   50   52 1    
    99   50  116 1    
   100   51  117 1    
   101   51  118 1    
   102   51  119 1    
   103   52   53 2    
   104   52   54 am   BACKBONE|DICT|INTERRES
   105   54   55 1    
   106   54  120 1    
   107   55   56 1    
   108   55   57 1    
   109   55  121 1    
   110   56  122 1    
   111   56  123 1    
   112   56  124 1    
   113   57   58 2    
   114   57   59 am   BACKBONE|DICT|INTERRES
   115   59   60 1    
   116   59  125 1    
   117   60   61 1    
   118   60   62 1    
   119   60  126 1    
   120   61  127 1    
   121   61  128 1    
   122   61  129 1    
   123   62   63 2    
   124   62   64 am   BACKBONE|DICT|INTERRES
   125   64   65 1    
   126   64  130 1    
   127   65   66 1    
   128   65   69 1    
   129   65  131 1    
   130   66   67 am   BACKBONE|DICT|INTERRES
   131   66   68 2    
   132   67  132 1    
   133   67  133 1    
   134   69   70 1    
   135   69  134 1    
   136   69  135 1    
   137   70   71 1    
   138   71  136 1    
   139   71  137 1    
@<TRIPOS>SUBSTRUCTURE
     1 UNK         1 GROUP             0       ****    0 ROOT    
