@<TRIPOS>MOLECULE
3R136
137   139    1
SMALL
USER_CHARGES


@<TRIPOS>ATOM
      1 CA         32.7475   25.9635    0.1511 C.3       0 UNK        -0.1979 
      2 C          31.3133   25.4829    0.3137 C.2       0 UNK         0.4864 
      3 O          30.4306   26.2814    0.6225 O.2       0 UNK        -0.5359 
      4 N          31.0710   24.1836    0.0940 N.am      1 UNK        -0.4318 
      5 CA         29.7651   23.5355    0.2793 C.3       1 UNK         0.0824 
      6 C6         29.8722   21.9894    0.3549 C.3       12 UNK        -0.0944 
      7 S7         31.1910   21.3576    1.4457 S.3       12 UNK        -0.2672 
      8 C8         30.4896   21.6261    3.1079 C.3       12 UNK         0.0333 
      9 C9         30.7353   23.0360    3.6369 C.ar      12 UNK        -0.0807 
     10 C10        32.0230   23.5856    3.6144 C.ar      12 UNK        -0.0894 
     11 C11        32.2630   24.8633    4.1256 C.ar      12 UNK        -0.0804 
     12 C12        31.2071   25.5857    4.6853 C.ar      12 UNK        -0.0824 
     13 C13        29.9193   25.0443    4.7330 C.ar      12 UNK        -0.0762 
     14 C14        29.6852   23.7736    4.1967 C.ar      12 UNK        -0.0782 
     15 C15        28.8049   25.8217    5.4168 C.3       12 UNK         0.0230 
     16 S16        28.1740   27.1738    4.3767 S.3       12 UNK        -0.2608 
     17 C17        26.8171   26.3737    3.4549 C.3       12 UNK        -0.0989 
     18 CA         26.9113   26.5553    1.9135 C.3       5 UNK         0.0716 
     19 N          26.1414   25.5497    1.1703 N.am      5 UNK        -0.4135 
     20 C          24.8549   25.2055    1.3323 C.2       4 UNK         0.5031 
     21 O          24.1256   25.6190    2.2365 O.2       4 UNK        -0.5229 
     22 CA         24.3030   24.2145    0.2886 C.3       4 UNK         0.0329 
     23 CB         22.8110   23.8706    0.4911 C.3       4 UNK        -0.2001 
     24 N          24.5687   24.6695   -1.0820 N.am      4 UNK        -0.4303 
     25 C          24.1126   25.7836   -1.6799 C.2       3 UNK         0.5044 
     26 O          23.2739   26.5379   -1.1850 O.2       3 UNK        -0.5152 
     27 CA         24.6735   26.0942   -3.0864 C.3       3 UNK         0.0319 
     28 CB         24.6566   27.6033   -3.4146 C.3       3 UNK        -0.2001 
     29 N          26.0034   25.5157   -3.3324 N.am      3 UNK        -0.4354 
     30 C          27.1424   25.8009   -2.6829 C.2       2 UNK         0.4964 
     31 O          27.2572   26.6717   -1.8191 O.2       2 UNK        -0.5047 
     32 CA         28.3604   24.9393   -3.0599 C.3       2 UNK         0.0288 
     33 CB         29.2588   25.6899   -4.0564 C.3       2 UNK        -0.2113 
     34 N          29.1658   24.5315   -1.9039 N.am      2 UNK        -0.4145 
     35 C          28.7206   23.9280   -0.7897 C.2       1 UNK         0.5006 
     36 O          27.5357   23.6515   -0.5895 O.2       1 UNK        -0.5103 
     37 C          26.5640   27.9913    1.4500 C.2       5 UNK         0.5055 
     38 O          25.4861   28.2422    0.9055 O.2       5 UNK        -0.5220 
     39 N          27.4918   28.9234    1.6852 N.am      6 UNK        -0.4450 
     40 CA         27.3721   30.3449    1.3766 C.3       6 UNK         0.0367 
     41 CB         27.9661   30.6158   -0.0168 C.3       6 UNK        -0.1929 
     42 C          28.1166   31.1382    2.4546 C.2       6 UNK         0.5070 
     43 O          29.0038   30.5902    3.1098 O.2       6 UNK        -0.5237 
     44 N          27.7847   32.4278    2.5980 N.am      7 UNK        -0.4739 
     45 CA         28.3703   33.3347    3.5977 C.3       7 UNK         0.0276 
     46 CB         27.6386   34.6857    3.5441 C.3       7 UNK        -0.1927 
     47 C          29.8923   33.5425    3.4643 C.2       7 UNK         0.5013 
     48 O          30.5496   33.8537    4.4579 O.2       7 UNK        -0.5193 
     49 N          30.4228   33.3539    2.2489 N.am      8 UNK        -0.4253 
     50 CA         31.8509   33.4168    1.9367 C.3       8 UNK         0.0242 
     51 CB         32.0150   33.6994    0.4338 C.3       8 UNK        -0.2000 
     52 C          32.6301   32.1464    2.3290 C.2       8 UNK         0.4948 
     53 O          33.8620   32.1876    2.3291 O.2       8 UNK        -0.5275 
     54 N          31.9396   31.0392    2.6441 N.am      9 UNK        -0.4246 
     55 CA         32.5318   29.7294    2.9385 C.3       9 UNK         0.0261 
     56 CB         31.4808   28.6392    2.6678 C.3       9 UNK        -0.1959 
     57 C          33.1129   29.6477    4.3645 C.2       9 UNK         0.5033 
     58 O          32.7555   28.7562    5.1363 O.2       9 UNK        -0.5390 
     59 N          34.0168   30.5743    4.6981 N.am      10 UNK        -0.4215 
     60 CA         34.6849   30.6909    5.9958 C.3       10 UNK         0.0240 
     61 CB         35.1343   32.1521    6.1874 C.3       10 UNK        -0.1982 
     62 C          35.8431   29.6834    6.1512 C.2       10 UNK         0.4970 
     63 O          36.9770   30.0888    6.4142 O.2       10 UNK        -0.4916 
     64 N          35.5452   28.3894    5.9777 N.am      11 UNK        -0.4279 
     65 CA         36.5004   27.2809    6.1456 C.3       11 UNK         0.1003 
     66 C          36.8086   26.8971    7.6237 C.2       11 UNK         0.5709 
     67 N          36.0934   27.4209    8.6128 N.am      11 UNK        -0.7358 
     68 O          37.7283   26.1226    7.8782 O.2       11 UNK        -0.4999 
     69 C69        36.1292   26.0503    5.2750 C.3       12 UNK        -0.0954 
     70 S70        34.5112   25.3010    5.6724 S.3       12 UNK        -0.2268 
     71 C71        33.6601   25.4622    4.0754 C.3       12 UNK         0.0203 
     72 H72        32.7796   26.8360   -0.5008 H         1 UNK         0.0888 
     73 H73        33.1601   26.2456    1.1186 H         1 UNK         0.0888 
     74 H74        33.3881   25.1943   -0.2798 H         1 UNK         0.0888 
     75 H75        31.8331   23.5627   -0.1394 H         1 UNK         0.3017 
     76 H76        29.3669   23.8871    1.2333 H         1 UNK         0.0873 
     77 H77        28.9222   21.5577    0.6767 H         1 UNK         0.0745 
     78 H78        30.0645   21.5768   -0.6377 H         1 UNK         0.0745 
     79 H79        29.4251   21.3872    3.0960 H         1 UNK         0.0705 
     80 H80        30.9543   20.9188    3.7960 H         1 UNK         0.0705 
     81 H81        32.8412   23.0157    3.1959 H         1 UNK         0.1334 
     82 H82        31.3901   26.5686    5.0976 H         1 UNK         0.1417 
     83 H83        28.6912   23.3496    4.2394 H         1 UNK         0.1562 
     84 H84        29.1929   26.2542    6.3403 H         1 UNK         0.0748 
     85 H85        27.9901   25.1622    5.7191 H         1 UNK         0.0748 
     86 H86        25.8702   26.7600    3.8365 H         1 UNK         0.0940 
     87 H87        26.8188   25.3092    3.6925 H         1 UNK         0.0940 
     88 H88        27.9458   26.3736    1.6184 H         1 UNK         0.0703 
     89 H89        26.6266   25.1391    0.3793 H         1 UNK         0.3081 
     90 H90        24.8686   23.2903    0.4180 H         1 UNK         0.0719 
     91 H91        22.1756   24.7547    0.4335 H         1 UNK         0.0809 
     92 H92        22.4630   23.1574   -0.2559 H         1 UNK         0.0809 
     93 H93        22.6472   23.4200    1.4707 H         1 UNK         0.0809 
     94 H94        25.2700   24.1349   -1.5768 H         1 UNK         0.2990 
     95 H95        23.9988   25.6018   -3.7882 H         1 UNK         0.0690 
     96 H96        23.6389   27.9953   -3.4005 H         1 UNK         0.0788 
     97 H97        25.0641   27.8000   -4.4061 H         1 UNK         0.0788 
     98 H98        25.2342   28.1809   -2.6919 H         1 UNK         0.0788 
     99 H99        26.0280   24.7881   -4.0344 H         1 UNK         0.2993 
    100 H100       28.0055   24.0226   -3.5353 H         1 UNK         0.0949 
    101 H101       28.6969   25.9891   -4.9424 H         1 UNK         0.0767 
    102 H102       29.6774   26.5956   -3.6149 H         1 UNK         0.0767 
    103 H103       30.0867   25.0666   -4.3953 H         1 UNK         0.0767 
    104 H104       30.1516   24.7399   -1.9509 H         1 UNK         0.3013 
    105 H105       28.3125   28.6824    2.2304 H         1 UNK         0.3121 
    106 H106       26.3216   30.6430    1.3963 H         1 UNK         0.0774 
    107 H107       27.8790   31.6689   -0.2864 H         1 UNK         0.0815 
    108 H108       29.0233   30.3501   -0.0616 H         1 UNK         0.0815 
    109 H109       27.4469   30.0414   -0.7848 H         1 UNK         0.0815 
    110 H110       27.0562   32.8115    2.0120 H         1 UNK         0.2987 
    111 H111       28.1977   32.8914    4.5811 H         1 UNK         0.0949 
    112 H112       27.7489   35.1667    2.5714 H         1 UNK         0.0806 
    113 H113       26.5732   34.5697    3.7442 H         1 UNK         0.0806 
    114 H114       28.0326   35.3735    4.2938 H         1 UNK         0.0806 
    115 H115       29.7993   33.1050    1.4950 H         1 UNK         0.3010 
    116 H116       32.2919   34.2492    2.4896 H         1 UNK         0.0829 
    117 H117       31.5280   34.6324    0.1493 H         1 UNK         0.0813 
    118 H118       33.0685   33.7928    0.1660 H         1 UNK         0.0813 
    119 H119       31.5939   32.8995   -0.1767 H         1 UNK         0.0813 
    120 H120       30.9270   31.0860    2.7053 H         1 UNK         0.3038 
    121 H121       33.3588   29.5633    2.2449 H         1 UNK         0.0769 
    122 H122       30.6841   28.6517    3.4113 H         1 UNK         0.0811 
    123 H123       31.9257   27.6468    2.6980 H         1 UNK         0.0811 
    124 H124       31.0247   28.7550    1.6847 H         1 UNK         0.0811 
    125 H125       34.2600   31.2575    3.9850 H         1 UNK         0.3204 
    126 H126       33.9606   30.4649    6.7813 H         1 UNK         0.0748 
    127 H127       35.5964   32.2962    7.1651 H         1 UNK         0.0771 
    128 H128       35.8623   32.4529    5.4327 H         1 UNK         0.0771 
    129 H129       34.2882   32.8373    6.1277 H         1 UNK         0.0771 
    130 H130       34.5831   28.1388    5.7722 H         1 UNK         0.2980 
    131 H131       37.4568   27.6346    5.7554 H         1 UNK         0.0545 
    132 H132       35.3326   28.0501    8.4155 H         1 UNK         0.3459 
    133 H133       36.3085   27.1690    9.5645 H         1 UNK         0.3459 
    134 H134       36.1432   26.3418    4.2238 H         1 UNK         0.0616 
    135 H135       36.8918   25.2749    5.3669 H         1 UNK         0.0616 
    136 H136       34.2529   24.9732    3.3008 H         1 UNK         0.0634 
    137 H137       33.6072   26.5161    3.8047 H         1 UNK         0.0634 
@<TRIPOS>BOND
     1    1    2 1    
     2    1   72 1    
     3    1   73 1    
     4    1   74 1    
     5    2    3 2    
     6    2    4 am   BACKBONE|DICT|INTERRES
     7    4    5 1    
     8    4   75 1    
     9    5    6 1    
    10    5   35 1    
    11    5   76 1    
    12    6    7 1    
    13    6   77 1    
    14    6   78 1    
    15    7    8 1    
    16    8    9 1    
    17    8   79 1    
    18    8   80 1    
    19    9   10 ar   
    20    9   14 ar   
    21   10   11 ar   
    22   10   81 1    
    23   11   12 ar   
    24   11   71 1    
    25   12   13 ar   
    26   12   82 1    
    27   13   14 ar   
    28   13   15 1    
    29   14   83 1    
    30   15   16 1    
    31   15   84 1    
    32   15   85 1    
    33   16   17 1    
    34   17   18 1    
    35   17   86 1    
    36   17   87 1    
    37   18   19 1    
    38   18   37 1    
    39   18   88 1    
    40   19   20 am   BACKBONE|DICT|INTERRES
    41   19   89 1    
    42   20   21 2    
    43   20   22 1    
    44   22   23 1    
    45   22   24 1    
    46   22   90 1    
    47   23   91 1    
    48   23   92 1    
    49   23   93 1    
    50   24   25 am   BACKBONE|DICT|INTERRES
    51   24   94 1    
    52   25   26 2    
    53   25   27 1    
    54   27   28 1    
    55   27   29 1    
    56   27   95 1    
    57   28   96 1    
    58   28   97 1    
    59   28   98 1    
    60   29   30 am   BACKBONE|DICT|INTERRES
    61   29   99 1    
    62   30   31 2    
    63   30   32 1    
    64   32   33 1    
    65   32   34 1    
    66   32  100 1    
    67   33  101 1    
    68   33  102 1    
    69   33  103 1    
    70   34   35 am   BACKBONE|DICT|INTERRES
    71   34  104 1    
    72   35   36 2    
    73   37   38 2    
    74   37   39 am   BACKBONE|DICT|INTERRES
    75   39   40 1    
    76   39  105 1    
    77   40   41 1    
    78   40   42 1    
    79   40  106 1    
    80   41  107 1    
    81   41  108 1    
    82   41  109 1    
    83   42   43 2    
    84   42   44 am   BACKBONE|DICT|INTERRES
    85   44   45 1    
    86   44  110 1    
    87   45   46 1    
    88   45   47 1    
    89   45  111 1    
    90   46  112 1    
    91   46  113 1    
    92   46  114 1    
    93   47   48 2    
    94   47   49 am   BACKBONE|DICT|INTERRES
    95   49   50 1    
    96   49  115 1    
    97   50   51 1    
    98   50   52 1    
    99   50  116 1    
   100   51  117 1    
   101   51  118 1    
   102   51  119 1    
   103   52   53 2    
   104   52   54 am   BACKBONE|DICT|INTERRES
   105   54   55 1    
   106   54  120 1    
   107   55   56 1    
   108   55   57 1    
   109   55  121 1    
   110   56  122 1    
   111   56  123 1    
   112   56  124 1    
   113   57   58 2    
   114   57   59 am   BACKBONE|DICT|INTERRES
   115   59   60 1    
   116   59  125 1    
   117   60   61 1    
   118   60   62 1    
   119   60  126 1    
   120   61  127 1    
   121   61  128 1    
   122   61  129 1    
   123   62   63 2    
   124   62   64 am   BACKBONE|DICT|INTERRES
   125   64   65 1    
   126   64  130 1    
   127   65   66 1    
   128   65   69 1    
   129   65  131 1    
   130   66   67 am   BACKBONE|DICT|INTERRES
   131   66   68 2    
   132   67  132 1    
   133   67  133 1    
   134   69   70 1    
   135   69  134 1    
   136   69  135 1    
   137   70   71 1    
   138   71  136 1    
   139   71  137 1    
@<TRIPOS>SUBSTRUCTURE
     1 UNK         1 GROUP             0       ****    0 ROOT    
