@<TRIPOS>MOLECULE
3R136
137   139    1
SMALL
USER_CHARGES


@<TRIPOS>ATOM
      1 CA         29.3563   17.3161   -1.4184 C.3       0 UNK        -0.1979 
      2 C          29.0595   18.8015   -1.5620 C.2       0 UNK         0.4864 
      3 O          28.8490   19.2760   -2.6789 O.2       0 UNK        -0.5359 
      4 N          29.0459   19.5368   -0.4408 N.am      1 UNK        -0.4318 
      5 CA         28.7549   20.9745   -0.3800 C.3       1 UNK         0.0824 
      6 C6         29.1486   21.5598    1.0004 C.3       12 UNK        -0.0944 
      7 S7         29.2173   23.3817    1.0315 S.3       12 UNK        -0.2672 
      8 C8         29.9080   23.6390    2.6930 C.3       12 UNK         0.0333 
      9 C9         29.9636   25.1169    3.0436 C.ar      12 UNK        -0.0807 
     10 C10        31.1548   25.8363    2.9078 C.ar      12 UNK        -0.0894 
     11 C11        31.2087   27.1918    3.2487 C.ar      12 UNK        -0.0804 
     12 C12        30.0534   27.8319    3.7094 C.ar      12 UNK        -0.0824 
     13 C13        28.8555   27.1228    3.8429 C.ar      12 UNK        -0.0762 
     14 C14        28.8197   25.7641    3.5171 C.ar      12 UNK        -0.0782 
     15 C15        27.5964   27.8163    4.3419 C.3       12 UNK         0.0230 
     16 S16        26.3136   27.8989    3.0518 S.3       12 UNK        -0.2608 
     17 C17        27.0602   29.0569    1.8554 C.3       12 UNK        -0.0989 
     18 CA         27.7069   28.3474    0.6379 C.3       5 UNK         0.0716 
     19 N          26.7577   27.4842   -0.0673 N.am      5 UNK        -0.4135 
     20 C          27.0418   26.6797   -1.0990 C.2       4 UNK         0.5031 
     21 O          28.1594   26.5787   -1.6093 O.2       4 UNK        -0.5229 
     22 CA         25.8800   25.8053   -1.6039 C.3       4 UNK         0.0329 
     23 CB         26.1919   25.1166   -2.9455 C.3       4 UNK        -0.2001 
     24 N          25.5462   24.7895   -0.6027 N.am      4 UNK        -0.4303 
     25 C          24.7692   25.0070    0.4698 C.2       3 UNK         0.5044 
     26 O          24.2066   26.0847    0.6749 O.2       3 UNK        -0.5152 
     27 CA         24.6196   23.8689    1.5038 C.3       3 UNK         0.0319 
     28 CB         23.2524   23.8947    2.2202 C.3       3 UNK        -0.2001 
     29 N          24.9132   22.5299    0.9781 N.am      3 UNK        -0.4354 
     30 C          24.2742   21.8749   -0.0048 C.2       2 UNK         0.4964 
     31 O          23.2596   22.2955   -0.5630 O.2       2 UNK        -0.5047 
     32 CA         24.8950   20.5308   -0.4514 C.3       2 UNK         0.0288 
     33 CB         24.5379   20.1750   -1.9108 C.3       2 UNK        -0.2113 
     34 N          26.3524   20.4445   -0.2534 N.am      2 UNK        -0.4145 
     35 C          27.2846   21.2864   -0.7339 C.2       1 UNK         0.5006 
     36 O          27.0226   22.2818   -1.4098 O.2       1 UNK        -0.5103 
     37 C          28.3364   29.3937   -0.3028 C.2       5 UNK         0.5055 
     38 O          27.6106   30.1054   -1.0020 O.2       5 UNK        -0.5220 
     39 N          29.6659   29.4961   -0.2603 N.am      6 UNK        -0.4450 
     40 CA         30.4767   30.5090   -0.9239 C.3       6 UNK         0.0367 
     41 CB         30.8074   30.0766   -2.3626 C.3       6 UNK        -0.1929 
     42 C          31.7413   30.6563   -0.0759 C.2       6 UNK         0.5070 
     43 O          32.2263   29.6478    0.4388 O.2       6 UNK        -0.5237 
     44 N          32.2280   31.8950    0.0847 N.am      7 UNK        -0.4739 
     45 CA         33.3186   32.2871    0.9941 C.3       7 UNK         0.0276 
     46 CB         34.6684   31.6866    0.5450 C.3       7 UNK        -0.1927 
     47 C          32.9939   31.9816    2.4723 C.2       7 UNK         0.5013 
     48 O          33.8722   31.5728    3.2344 O.2       7 UNK        -0.5193 
     49 N          31.7270   32.1983    2.8600 N.am      8 UNK        -0.4253 
     50 CA         31.1772   31.9015    4.1888 C.3       8 UNK         0.0242 
     51 CB         29.6705   32.2026    4.1993 C.3       8 UNK        -0.2000 
     52 C          31.8866   32.6115    5.3550 C.2       8 UNK         0.4948 
     53 O          31.8827   32.0829    6.4656 O.2       8 UNK        -0.5275 
     54 N          32.5279   33.7556    5.0794 N.am      9 UNK        -0.4246 
     55 CA         33.3961   34.4736    6.0151 C.3       9 UNK         0.0261 
     56 CB         33.7914   35.8269    5.4022 C.3       9 UNK        -0.1959 
     57 C          34.6532   33.6820    6.4287 C.2       9 UNK         0.5033 
     58 O          35.1583   33.9091    7.5292 O.2       9 UNK        -0.5390 
     59 N          35.1347   32.7758    5.5632 N.am      10 UNK        -0.4215 
     60 CA         36.2450   31.8705    5.8628 C.3       10 UNK         0.0240 
     61 CB         36.9727   31.4833    4.5642 C.3       10 UNK        -0.1982 
     62 C          35.7606   30.6192    6.6112 C.2       10 UNK         0.4970 
     63 O          36.4367   30.1817    7.5433 O.2       10 UNK        -0.4916 
     64 N          34.6123   30.0669    6.1946 N.am      11 UNK        -0.4279 
     65 CA         33.9913   28.8879    6.8208 C.3       11 UNK         0.1003 
     66 C          33.3909   29.1620    8.2274 C.2       11 UNK         0.5709 
     67 N          32.8301   30.3356    8.4876 N.am      11 UNK        -0.7358 
     68 O          33.4449   28.2971    9.0987 O.2       11 UNK        -0.4999 
     69 C69        32.9485   28.2133    5.8944 C.3       12 UNK        -0.0954 
     70 S70        33.7204   27.5249    4.3929 S.3       12 UNK        -0.2268 
     71 C71        32.5143   27.9621    3.1040 C.3       12 UNK         0.0203 
     72 H72        28.5196   16.7284   -1.7952 H         1 UNK         0.0888 
     73 H73        30.2438   17.0537   -1.9937 H         1 UNK         0.0888 
     74 H74        29.5296   17.0323   -0.3804 H         1 UNK         0.0888 
     75 H75        29.2438   19.0880    0.4426 H         1 UNK         0.3017 
     76 H76        29.3752   21.4569   -1.1391 H         1 UNK         0.0873 
     77 H77        30.1397   21.1971    1.2788 H         1 UNK         0.0745 
     78 H78        28.4704   21.2140    1.7831 H         1 UNK         0.0745 
     79 H79        29.2976   23.1104    3.4270 H         1 UNK         0.0705 
     80 H80        30.9045   23.1973    2.7433 H         1 UNK         0.0705 
     81 H81        32.0452   25.3410    2.5450 H         1 UNK         0.1334 
     82 H82        30.0853   28.8809    3.9652 H         1 UNK         0.1417 
     83 H83        27.8942   25.2134    3.6187 H         1 UNK         0.1562 
     84 H84        27.8151   28.8225    4.7035 H         1 UNK         0.0748 
     85 H85        27.2013   27.2644    5.1959 H         1 UNK         0.0748 
     86 H86        27.7945   29.6773    2.3727 H         1 UNK         0.0940 
     87 H87        26.2751   29.7397    1.5235 H         1 UNK         0.0940 
     88 H88        28.5019   27.6951    1.0060 H         1 UNK         0.0703 
     89 H89        25.8194   27.4491    0.3140 H         1 UNK         0.3081 
     90 H90        25.0168   26.4552   -1.7635 H         1 UNK         0.0719 
     91 H91        26.3851   25.8547   -3.7247 H         1 UNK         0.0809 
     92 H92        27.0727   24.4772   -2.8793 H         1 UNK         0.0809 
     93 H93        25.3567   24.5006   -3.2790 H         1 UNK         0.0809 
     94 H94        26.0030   23.8890   -0.7131 H         1 UNK         0.2990 
     95 H95        25.3837   24.0633    2.2580 H         1 UNK         0.0690 
     96 H96        23.1755   23.0968    2.9586 H         1 UNK         0.0788 
     97 H97        22.4251   23.7851    1.5186 H         1 UNK         0.0788 
     98 H98        23.1053   24.8373    2.7491 H         1 UNK         0.0788 
     99 H99        25.7366   22.0893    1.3629 H         1 UNK         0.2993 
    100 H100       24.4507   19.7702    0.1924 H         1 UNK         0.0949 
    101 H101       24.8994   20.9308   -2.6092 H         1 UNK         0.0767 
    102 H102       24.9690   19.2171   -2.2022 H         1 UNK         0.0767 
    103 H103       23.4583   20.0964   -2.0450 H         1 UNK         0.0767 
    104 H104       26.6714   19.6596    0.2977 H         1 UNK         0.3013 
    105 H105       30.2052   28.8910    0.3490 H         1 UNK         0.3121 
    106 H106       29.9368   31.4584   -0.9372 H         1 UNK         0.0774 
    107 H107       31.3506   29.1308   -2.3828 H         1 UNK         0.0815 
    108 H108       29.9024   29.9547   -2.9579 H         1 UNK         0.0815 
    109 H109       31.4277   30.8222   -2.8614 H         1 UNK         0.0815 
    110 H110       31.7682   32.6555   -0.3987 H         1 UNK         0.2987 
    111 H111       33.4057   33.3725    0.9243 H         1 UNK         0.0949 
    112 H112       34.8781   31.9159   -0.4996 H         1 UNK         0.0806 
    113 H113       35.4908   32.0910    1.1368 H         1 UNK         0.0806 
    114 H114       34.6914   30.6028    0.6629 H         1 UNK         0.0806 
    115 H115       31.0768   32.5466    2.1707 H         1 UNK         0.3010 
    116 H116       31.3092   30.8326    4.3561 H         1 UNK         0.0829 
    117 H117       29.4683   33.2571    4.0072 H         1 UNK         0.0813 
    118 H118       29.2303   31.9576    5.1672 H         1 UNK         0.0813 
    119 H119       29.1415   31.6157    3.4484 H         1 UNK         0.0813 
    120 H120       32.4668   34.1214    4.1406 H         1 UNK         0.3038 
    121 H121       32.8188   34.6639    6.9225 H         1 UNK         0.0769 
    122 H122       32.9142   36.4362    5.1836 H         1 UNK         0.0811 
    123 H123       34.3555   35.7028    4.4769 H         1 UNK         0.0811 
    124 H124       34.4164   36.3984    6.0900 H         1 UNK         0.0811 
    125 H125       34.6449   32.6101    4.6882 H         1 UNK         0.3204 
    126 H126       36.9639   32.3872    6.5026 H         1 UNK         0.0748 
    127 H127       36.3329   30.9141    3.8891 H         1 UNK         0.0771 
    128 H128       37.3241   32.3652    4.0282 H         1 UNK         0.0771 
    129 H129       37.8454   30.8654    4.7792 H         1 UNK         0.0771 
    130 H130       34.1289   30.4697    5.4048 H         1 UNK         0.2980 
    131 H131       34.7893   28.1593    6.9799 H         1 UNK         0.0545 
    132 H132       32.4517   30.5058    9.4050 H         1 UNK         0.3459 
    133 H133       32.6821   31.0184    7.7482 H         1 UNK         0.3459 
    134 H134       32.1675   28.9248    5.6234 H         1 UNK         0.0616 
    135 H135       32.4482   27.3884    6.4053 H         1 UNK         0.0616 
    136 H136       32.9554   27.7363    2.1325 H         1 UNK         0.0634 
    137 H137       32.3417   29.0382    3.1183 H         1 UNK         0.0634 
@<TRIPOS>BOND
     1    1    2 1    
     2    1   72 1    
     3    1   73 1    
     4    1   74 1    
     5    2    3 2    
     6    2    4 am   BACKBONE|DICT|INTERRES
     7    4    5 1    
     8    4   75 1    
     9    5    6 1    
    10    5   35 1    
    11    5   76 1    
    12    6    7 1    
    13    6   77 1    
    14    6   78 1    
    15    7    8 1    
    16    8    9 1    
    17    8   79 1    
    18    8   80 1    
    19    9   10 ar   
    20    9   14 ar   
    21   10   11 ar   
    22   10   81 1    
    23   11   12 ar   
    24   11   71 1    
    25   12   13 ar   
    26   12   82 1    
    27   13   14 ar   
    28   13   15 1    
    29   14   83 1    
    30   15   16 1    
    31   15   84 1    
    32   15   85 1    
    33   16   17 1    
    34   17   18 1    
    35   17   86 1    
    36   17   87 1    
    37   18   19 1    
    38   18   37 1    
    39   18   88 1    
    40   19   20 am   BACKBONE|DICT|INTERRES
    41   19   89 1    
    42   20   21 2    
    43   20   22 1    
    44   22   23 1    
    45   22   24 1    
    46   22   90 1    
    47   23   91 1    
    48   23   92 1    
    49   23   93 1    
    50   24   25 am   BACKBONE|DICT|INTERRES
    51   24   94 1    
    52   25   26 2    
    53   25   27 1    
    54   27   28 1    
    55   27   29 1    
    56   27   95 1    
    57   28   96 1    
    58   28   97 1    
    59   28   98 1    
    60   29   30 am   BACKBONE|DICT|INTERRES
    61   29   99 1    
    62   30   31 2    
    63   30   32 1    
    64   32   33 1    
    65   32   34 1    
    66   32  100 1    
    67   33  101 1    
    68   33  102 1    
    69   33  103 1    
    70   34   35 am   BACKBONE|DICT|INTERRES
    71   34  104 1    
    72   35   36 2    
    73   37   38 2    
    74   37   39 am   BACKBONE|DICT|INTERRES
    75   39   40 1    
    76   39  105 1    
    77   40   41 1    
    78   40   42 1    
    79   40  106 1    
    80   41  107 1    
    81   41  108 1    
    82   41  109 1    
    83   42   43 2    
    84   42   44 am   BACKBONE|DICT|INTERRES
    85   44   45 1    
    86   44  110 1    
    87   45   46 1    
    88   45   47 1    
    89   45  111 1    
    90   46  112 1    
    91   46  113 1    
    92   46  114 1    
    93   47   48 2    
    94   47   49 am   BACKBONE|DICT|INTERRES
    95   49   50 1    
    96   49  115 1    
    97   50   51 1    
    98   50   52 1    
    99   50  116 1    
   100   51  117 1    
   101   51  118 1    
   102   51  119 1    
   103   52   53 2    
   104   52   54 am   BACKBONE|DICT|INTERRES
   105   54   55 1    
   106   54  120 1    
   107   55   56 1    
   108   55   57 1    
   109   55  121 1    
   110   56  122 1    
   111   56  123 1    
   112   56  124 1    
   113   57   58 2    
   114   57   59 am   BACKBONE|DICT|INTERRES
   115   59   60 1    
   116   59  125 1    
   117   60   61 1    
   118   60   62 1    
   119   60  126 1    
   120   61  127 1    
   121   61  128 1    
   122   61  129 1    
   123   62   63 2    
   124   62   64 am   BACKBONE|DICT|INTERRES
   125   64   65 1    
   126   64  130 1    
   127   65   66 1    
   128   65   69 1    
   129   65  131 1    
   130   66   67 am   BACKBONE|DICT|INTERRES
   131   66   68 2    
   132   67  132 1    
   133   67  133 1    
   134   69   70 1    
   135   69  134 1    
   136   69  135 1    
   137   70   71 1    
   138   71  136 1    
   139   71  137 1    
@<TRIPOS>SUBSTRUCTURE
     1 UNK         1 GROUP             0       ****    0 ROOT    
