@<TRIPOS>MOLECULE
3R136
137   139    1
SMALL
USER_CHARGES


@<TRIPOS>ATOM
      1 CA         33.1266   24.7124   -0.8043 C.3       0 UNK        -0.1979 
      2 C          31.7569   24.3239   -0.2672 C.2       0 UNK         0.4864 
      3 O          30.8357   25.1411   -0.2947 O.2       0 UNK        -0.5359 
      4 N          31.6174   23.0838    0.2230 N.am      1 UNK        -0.4318 
      5 CA         30.3681   22.5433    0.7624 C.3       1 UNK         0.0824 
      6 C6         30.5917   21.1974    1.4929 C.3       12 UNK        -0.0944 
      7 S7         29.1973   20.7733    2.5922 S.3       12 UNK        -0.2672 
      8 C8         29.8515   21.2316    4.2273 C.3       12 UNK         0.0333 
      9 C9         29.9485   22.7404    4.4084 C.ar      12 UNK        -0.0807 
     10 C10        31.1739   23.3945    4.2457 C.ar      12 UNK        -0.0894 
     11 C11        31.2771   24.7716    4.4627 C.ar      12 UNK        -0.0804 
     12 C12        30.1442   25.4945    4.8478 C.ar      12 UNK        -0.0824 
     13 C13        28.9089   24.8556    4.9998 C.ar      12 UNK        -0.0762 
     14 C14        28.8179   23.4780    4.7752 C.ar      12 UNK        -0.0782 
     15 C15        27.6826   25.6388    5.4537 C.3       12 UNK         0.0230 
     16 S16        26.6614   26.2212    4.0602 S.3       12 UNK        -0.2608 
     17 C17        27.6862   27.5686    3.3814 C.3       12 UNK        -0.0989 
     18 CA         28.1292   27.2784    1.9196 C.3       5 UNK         0.0716 
     19 N          26.9941   27.3333    0.9805 N.am      5 UNK        -0.4135 
     20 C          26.3617   28.4387    0.5460 C.2       4 UNK         0.5031 
     21 O          26.6869   29.5810    0.8744 O.2       4 UNK        -0.5229 
     22 CA         25.2138   28.2759   -0.4694 C.3       4 UNK         0.0329 
     23 CB         25.6571   28.7856   -1.8516 C.3       4 UNK        -0.2001 
     24 N          24.7387   26.8987   -0.6073 N.am      4 UNK        -0.4303 
     25 C          23.8647   26.3011    0.2146 C.2       3 UNK         0.5044 
     26 O          23.2970   26.8729    1.1455 O.2       3 UNK        -0.5152 
     27 CA         23.5927   24.8018   -0.0321 C.3       3 UNK         0.0319 
     28 CB         22.3249   24.6194   -0.8822 C.3       3 UNK        -0.2001 
     29 N          24.7074   24.0769   -0.6616 N.am      3 UNK        -0.4354 
     30 C          25.9382   23.9797   -0.1413 C.2       2 UNK         0.4964 
     31 O          26.2682   24.5064    0.9250 O.2       2 UNK        -0.5047 
     32 CA         26.9941   23.2351   -0.9670 C.3       2 UNK         0.0288 
     33 CB         27.3456   24.0305   -2.2426 C.3       2 UNK        -0.2113 
     34 N          28.1635   23.1015   -0.1071 N.am      2 UNK        -0.4145 
     35 C          29.2944   22.4338   -0.3404 C.2       1 UNK         0.5006 
     36 O          29.5149   21.7632   -1.3525 O.2       1 UNK        -0.5103 
     37 C          29.3205   28.1629    1.4757 C.2       5 UNK         0.5055 
     38 O          29.9560   28.7935    2.3200 O.2       5 UNK        -0.5220 
     39 N          29.5530   28.2544    0.1548 N.am      6 UNK        -0.4450 
     40 CA         30.5340   29.1208   -0.5187 C.3       6 UNK         0.0367 
     41 CB         31.9628   28.5886   -0.2920 C.3       6 UNK        -0.1929 
     42 C          30.4049   30.6204   -0.1630 C.2       6 UNK         0.5070 
     43 O          31.4077   31.3355   -0.1721 O.2       6 UNK        -0.5237 
     44 N          29.1754   31.0647    0.1450 N.am      7 UNK        -0.4739 
     45 CA         28.8123   32.3919    0.6584 C.3       7 UNK         0.0276 
     46 CB         29.1563   33.5120   -0.3477 C.3       7 UNK        -0.1927 
     47 C          29.3501   32.6563    2.0812 C.2       7 UNK         0.5013 
     48 O          29.6443   33.8041    2.4207 O.2       7 UNK        -0.5193 
     49 N          29.4254   31.5908    2.8924 N.am      8 UNK        -0.4253 
     50 CA         29.8583   31.5485    4.2903 C.3       8 UNK         0.0242 
     51 CB         28.9633   32.4316    5.1921 C.3       8 UNK        -0.2000 
     52 C          31.3714   31.7969    4.4291 C.2       8 UNK         0.4948 
     53 O          32.1458   31.2316    3.6546 O.2       8 UNK        -0.5275 
     54 N          31.7764   32.5614    5.4570 N.am      9 UNK        -0.4246 
     55 CA         33.1646   32.8699    5.8407 C.3       9 UNK         0.0261 
     56 CB         33.8086   33.8182    4.8068 C.3       9 UNK        -0.1959 
     57 C          34.0215   31.6115    6.1016 C.2       9 UNK         0.5033 
     58 O          35.2149   31.6026    5.7917 O.2       9 UNK        -0.5390 
     59 N          33.3771   30.5521    6.6188 N.am      10 UNK        -0.4215 
     60 CA         33.9124   29.2014    6.8426 C.3       10 UNK         0.0240 
     61 CB         34.9117   29.2100    8.0194 C.3       10 UNK        -0.1982 
     62 C          34.4978   28.5421    5.5730 C.2       10 UNK         0.4970 
     63 O          35.4064   27.7178    5.6866 O.2       10 UNK        -0.4916 
     64 N          33.9812   28.9243    4.3948 N.am      11 UNK        -0.4279 
     65 CA         34.4943   28.5603    3.0639 C.3       11 UNK         0.1003 
     66 C          35.9018   29.1518    2.7377 C.2       11 UNK         0.5709 
     67 N          36.3974   30.1469    3.4664 N.am      11 UNK        -0.7358 
     68 O          36.5502   28.7278    1.7837 O.2       11 UNK        -0.4999 
     69 C69        34.3842   27.0381    2.7457 C.3       12 UNK        -0.0954 
     70 S70        32.6666   26.4258    2.7533 S.3       12 UNK        -0.2268 
     71 C71        32.6145   25.4784    4.3016 C.3       12 UNK         0.0203 
     72 H72        33.8222   23.8736   -0.7940 H         1 UNK         0.0888 
     73 H73        33.0399   25.0692   -1.8301 H         1 UNK         0.0888 
     74 H74        33.5512   25.5127   -0.1991 H         1 UNK         0.0888 
     75 H75        32.3980   22.4445    0.1892 H         1 UNK         0.3017 
     76 H76        30.0269   23.2702    1.5039 H         1 UNK         0.0873 
     77 H77        31.5044   21.2379    2.0889 H         1 UNK         0.0745 
     78 H78        30.7416   20.3832    0.7811 H         1 UNK         0.0745 
     79 H79        30.8232   20.7592    4.3800 H         1 UNK         0.0705 
     80 H80        29.1940   20.8178    4.9933 H         1 UNK         0.0705 
     81 H81        32.0509   22.8298    3.9605 H         1 UNK         0.1334 
     82 H82        30.2332   26.5563    5.0300 H         1 UNK         0.1417 
     83 H83        27.8681   22.9756    4.9012 H         1 UNK         0.1562 
     84 H84        27.9777   26.4881    6.0721 H         1 UNK         0.0748 
     85 H85        27.0649   25.0067    6.0934 H         1 UNK         0.0748 
     86 H86        28.5413   27.7128    4.0405 H         1 UNK         0.0940 
     87 H87        27.1225   28.5013    3.4347 H         1 UNK         0.0940 
     88 H88        28.5113   26.2564    1.8817 H         1 UNK         0.0703 
     89 H89        26.6228   26.4253    0.7207 H         1 UNK         0.3081 
     90 H90        24.3876   28.9023   -0.1260 H         1 UNK         0.0719 
     91 H91        26.4871   28.2027   -2.2527 H         1 UNK         0.0809 
     92 H92        24.8386   28.7436   -2.5705 H         1 UNK         0.0809 
     93 H93        25.9843   29.8253   -1.8000 H         1 UNK         0.0809 
     94 H94        25.1341   26.3523   -1.3583 H         1 UNK         0.2990 
     95 H95        23.4173   24.3442    0.9440 H         1 UNK         0.0690 
     96 H96        22.0590   23.5665   -0.9790 H         1 UNK         0.0788 
     97 H97        22.4484   25.0298   -1.8852 H         1 UNK         0.0788 
     98 H98        21.4726   25.1252   -0.4259 H         1 UNK         0.0788 
     99 H99        24.5133   23.6274   -1.5455 H         1 UNK         0.2993 
    100 H100       26.6182   22.2425   -1.2221 H         1 UNK         0.0949 
    101 H101       28.0908   23.5122   -2.8457 H         1 UNK         0.0767 
    102 H102       26.4711   24.1729   -2.8783 H         1 UNK         0.0767 
    103 H103       27.7436   25.0177   -2.0032 H         1 UNK         0.0767 
    104 H104       28.0511   23.6011    0.7686 H         1 UNK         0.3013 
    105 H105       28.9867   27.6835   -0.4562 H         1 UNK         0.3121 
    106 H106       30.3221   29.0483   -1.5863 H         1 UNK         0.0774 
    107 H107       32.6945   29.1475   -0.8763 H         1 UNK         0.0815 
    108 H108       32.2491   28.6685    0.7554 H         1 UNK         0.0815 
    109 H109       32.0476   27.5433   -0.5837 H         1 UNK         0.0815 
    110 H110       28.4169   30.3891    0.1624 H         1 UNK         0.2987 
    111 H111       27.7258   32.3760    0.7598 H         1 UNK         0.0949 
    112 H112       28.7222   34.4621   -0.0343 H         1 UNK         0.0806 
    113 H113       30.2321   33.6649   -0.4362 H         1 UNK         0.0806 
    114 H114       28.7642   33.2898   -1.3400 H         1 UNK         0.0806 
    115 H115       29.3028   30.6743    2.4724 H         1 UNK         0.3010 
    116 H116       29.7066   30.5146    4.6039 H         1 UNK         0.0829 
    117 H117       27.9080   32.2162    5.0238 H         1 UNK         0.0813 
    118 H118       29.1555   32.2448    6.2492 H         1 UNK         0.0813 
    119 H119       29.1139   33.4961    5.0087 H         1 UNK         0.0813 
    120 H120       31.0613   32.9704    6.0431 H         1 UNK         0.3038 
    121 H121       33.1131   33.4024    6.7916 H         1 UNK         0.0769 
    122 H122       34.7905   34.1557    5.1409 H         1 UNK         0.0811 
    123 H123       33.1982   34.7073    4.6492 H         1 UNK         0.0811 
    124 H124       33.9438   33.3294    3.8412 H         1 UNK         0.0811 
    125 H125       32.3957   30.6698    6.8290 H         1 UNK         0.3204 
    126 H126       33.0639   28.5808    7.1346 H         1 UNK         0.0748 
    127 H127       35.2130   28.1967    8.2882 H         1 UNK         0.0771 
    128 H128       35.8179   29.7650    7.7742 H         1 UNK         0.0771 
    129 H129       34.4730   29.6610    8.9095 H         1 UNK         0.0771 
    130 H130       33.2595   29.6368    4.3797 H         1 UNK         0.2980 
    131 H131       33.8345   29.0796    2.3699 H         1 UNK         0.0545 
    132 H132       37.3021   30.5207    3.2300 H         1 UNK         0.3459 
    133 H133       35.8857   30.5331    4.2535 H         1 UNK         0.3459 
    134 H134       34.7713   26.8322    1.7467 H         1 UNK         0.0616 
    135 H135       34.9971   26.4468    3.4266 H         1 UNK         0.0616 
    136 H136       33.4330   24.7571    4.3115 H         1 UNK         0.0634 
    137 H137       32.7787   26.1491    5.1452 H         1 UNK         0.0634 
@<TRIPOS>BOND
     1    1    2 1    
     2    1   72 1    
     3    1   73 1    
     4    1   74 1    
     5    2    3 2    
     6    2    4 am   BACKBONE|DICT|INTERRES
     7    4    5 1    
     8    4   75 1    
     9    5    6 1    
    10    5   35 1    
    11    5   76 1    
    12    6    7 1    
    13    6   77 1    
    14    6   78 1    
    15    7    8 1    
    16    8    9 1    
    17    8   79 1    
    18    8   80 1    
    19    9   10 ar   
    20    9   14 ar   
    21   10   11 ar   
    22   10   81 1    
    23   11   12 ar   
    24   11   71 1    
    25   12   13 ar   
    26   12   82 1    
    27   13   14 ar   
    28   13   15 1    
    29   14   83 1    
    30   15   16 1    
    31   15   84 1    
    32   15   85 1    
    33   16   17 1    
    34   17   18 1    
    35   17   86 1    
    36   17   87 1    
    37   18   19 1    
    38   18   37 1    
    39   18   88 1    
    40   19   20 am   BACKBONE|DICT|INTERRES
    41   19   89 1    
    42   20   21 2    
    43   20   22 1    
    44   22   23 1    
    45   22   24 1    
    46   22   90 1    
    47   23   91 1    
    48   23   92 1    
    49   23   93 1    
    50   24   25 am   BACKBONE|DICT|INTERRES
    51   24   94 1    
    52   25   26 2    
    53   25   27 1    
    54   27   28 1    
    55   27   29 1    
    56   27   95 1    
    57   28   96 1    
    58   28   97 1    
    59   28   98 1    
    60   29   30 am   BACKBONE|DICT|INTERRES
    61   29   99 1    
    62   30   31 2    
    63   30   32 1    
    64   32   33 1    
    65   32   34 1    
    66   32  100 1    
    67   33  101 1    
    68   33  102 1    
    69   33  103 1    
    70   34   35 am   BACKBONE|DICT|INTERRES
    71   34  104 1    
    72   35   36 2    
    73   37   38 2    
    74   37   39 am   BACKBONE|DICT|INTERRES
    75   39   40 1    
    76   39  105 1    
    77   40   41 1    
    78   40   42 1    
    79   40  106 1    
    80   41  107 1    
    81   41  108 1    
    82   41  109 1    
    83   42   43 2    
    84   42   44 am   BACKBONE|DICT|INTERRES
    85   44   45 1    
    86   44  110 1    
    87   45   46 1    
    88   45   47 1    
    89   45  111 1    
    90   46  112 1    
    91   46  113 1    
    92   46  114 1    
    93   47   48 2    
    94   47   49 am   BACKBONE|DICT|INTERRES
    95   49   50 1    
    96   49  115 1    
    97   50   51 1    
    98   50   52 1    
    99   50  116 1    
   100   51  117 1    
   101   51  118 1    
   102   51  119 1    
   103   52   53 2    
   104   52   54 am   BACKBONE|DICT|INTERRES
   105   54   55 1    
   106   54  120 1    
   107   55   56 1    
   108   55   57 1    
   109   55  121 1    
   110   56  122 1    
   111   56  123 1    
   112   56  124 1    
   113   57   58 2    
   114   57   59 am   BACKBONE|DICT|INTERRES
   115   59   60 1    
   116   59  125 1    
   117   60   61 1    
   118   60   62 1    
   119   60  126 1    
   120   61  127 1    
   121   61  128 1    
   122   61  129 1    
   123   62   63 2    
   124   62   64 am   BACKBONE|DICT|INTERRES
   125   64   65 1    
   126   64  130 1    
   127   65   66 1    
   128   65   69 1    
   129   65  131 1    
   130   66   67 am   BACKBONE|DICT|INTERRES
   131   66   68 2    
   132   67  132 1    
   133   67  133 1    
   134   69   70 1    
   135   69  134 1    
   136   69  135 1    
   137   70   71 1    
   138   71  136 1    
   139   71  137 1    
@<TRIPOS>SUBSTRUCTURE
     1 UNK         1 GROUP             0       ****    0 ROOT    
