@<TRIPOS>MOLECULE
3R136
137   139    1
SMALL
USER_CHARGES


@<TRIPOS>ATOM
      1 CA         29.4913   19.4338   -2.9029 C.3       0 UNK        -0.1979 
      2 C          29.7389   20.5533   -1.9043 C.2       0 UNK         0.4864 
      3 O          30.3641   20.3223   -0.8685 O.2       0 UNK        -0.5359 
      4 N          29.2555   21.7618   -2.2066 N.am      1 UNK        -0.4318 
      5 CA         29.4123   22.9643   -1.3948 C.3       1 UNK         0.0824 
      6 C6         28.4128   23.0023   -0.2070 C.3       12 UNK        -0.0944 
      7 S7         29.0100   24.0475    1.1600 S.3       12 UNK        -0.2672 
      8 C8         29.8093   22.7815    2.1880 C.3       12 UNK         0.0333 
      9 C9         30.5432   23.4080    3.3605 C.ar      12 UNK        -0.0807 
     10 C10        31.8918   23.7550    3.2402 C.ar      12 UNK        -0.0894 
     11 C11        32.5829   24.3032    4.3246 C.ar      12 UNK        -0.0804 
     12 C12        31.9104   24.5135    5.5326 C.ar      12 UNK        -0.0824 
     13 C13        30.5585   24.1787    5.6607 C.ar      12 UNK        -0.0762 
     14 C14        29.8807   23.6218    4.5721 C.ar      12 UNK        -0.0782 
     15 C15        29.8408   24.3987    6.9838 C.3       12 UNK         0.0230 
     16 S16        29.1900   26.0925    7.1272 S.3       12 UNK        -0.2608 
     17 C17        27.7286   26.0452    6.0316 C.3       12 UNK        -0.0989 
     18 CA         27.9212   26.8292    4.7065 C.3       5 UNK         0.0716 
     19 N          26.9344   26.4041    3.6998 N.am      5 UNK        -0.4135 
     20 C          26.8284   26.8823    2.4520 C.2       4 UNK         0.5031 
     21 O          27.5423   27.7754    1.9965 O.2       4 UNK        -0.5229 
     22 CA         25.6817   26.3315    1.5991 C.3       4 UNK         0.0329 
     23 CB         24.3400   26.9354    2.0647 C.3       4 UNK        -0.2001 
     24 N          25.9233   26.6623    0.1944 N.am      4 UNK        -0.4303 
     25 C          25.2729   26.1456   -0.8536 C.2       3 UNK         0.5044 
     26 O          24.3982   25.2842   -0.7544 O.2       3 UNK        -0.5152 
     27 CA         25.6519   26.6563   -2.2558 C.3       3 UNK         0.0319 
     28 CB         25.1420   28.0898   -2.5049 C.3       3 UNK        -0.2001 
     29 N          27.0758   26.5057   -2.5753 N.am      3 UNK        -0.4354 
     30 C          28.1308   27.1575   -2.0681 C.2       2 UNK         0.4964 
     31 O          28.0510   28.0696   -1.2468 O.2       2 UNK        -0.5047 
     32 CA         29.5092   26.6379   -2.5143 C.3       2 UNK         0.0288 
     33 CB         30.6558   27.6031   -2.1608 C.3       2 UNK        -0.2113 
     34 N          29.7610   25.3370   -1.8921 N.am      2 UNK        -0.4145 
     35 C          29.2410   24.1793   -2.3185 C.2       1 UNK         0.5006 
     36 O          28.5984   24.0647   -3.3681 O.2       1 UNK        -0.5103 
     37 C          27.9259   28.3584    4.9535 C.2       5 UNK         0.5055 
     38 O          28.9929   28.9480    5.1225 O.2       5 UNK        -0.5220 
     39 N          26.7345   28.9757    4.9420 N.am      6 UNK        -0.4450 
     40 CA         26.5477   30.4211    5.0960 C.3       6 UNK         0.0367 
     41 CB         25.0676   30.7090    5.3959 C.3       6 UNK        -0.1929 
     42 C          27.0146   31.2381    3.8763 C.2       6 UNK         0.5070 
     43 O          27.3981   32.3961    4.0433 O.2       6 UNK        -0.5237 
     44 N          26.9631   30.6382    2.6796 N.am      7 UNK        -0.4739 
     45 CA         27.4155   31.2472    1.4270 C.3       7 UNK         0.0276 
     46 CB         26.5633   30.7116    0.2674 C.3       7 UNK        -0.1927 
     47 C          28.9124   30.9978    1.1821 C.2       7 UNK         0.5013 
     48 O          29.5877   31.8713    0.6342 O.2       7 UNK        -0.5193 
     49 N          29.4187   29.8398    1.6280 N.am      8 UNK        -0.4253 
     50 CA         30.8240   29.4278    1.6121 C.3       8 UNK         0.0242 
     51 CB         30.8894   27.9058    1.8551 C.3       8 UNK        -0.2000 
     52 C          31.6757   30.2134    2.6319 C.2       8 UNK         0.4948 
     53 O          32.2932   29.6146    3.5126 O.2       8 UNK        -0.5275 
     54 N          31.7101   31.5469    2.4926 N.am      9 UNK        -0.4246 
     55 CA         32.3643   32.5005    3.3991 C.3       9 UNK         0.0261 
     56 CB         32.1360   33.9296    2.8798 C.3       9 UNK        -0.1959 
     57 C          33.8640   32.2460    3.6382 C.2       9 UNK         0.5033 
     58 O          34.3645   32.5666    4.7174 O.2       9 UNK        -0.5390 
     59 N          34.5414   31.6316    2.6575 N.am      10 UNK        -0.4215 
     60 CA         35.9281   31.1649    2.7460 C.3       10 UNK         0.0240 
     61 CB         36.3663   30.6280    1.3738 C.3       10 UNK        -0.1982 
     62 C          36.1666   30.1031    3.8392 C.2       10 UNK         0.4970 
     63 O          37.2960   29.9887    4.3173 O.2       10 UNK        -0.4916 
     64 N          35.1172   29.3647    4.2258 N.am      11 UNK        -0.4279 
     65 CA         35.1310   28.4137    5.3465 C.3       11 UNK         0.1003 
     66 C          35.0090   29.0899    6.7448 C.2       11 UNK         0.5709 
     67 N          34.7882   30.3966    6.8500 N.am      11 UNK        -0.7358 
     68 O          35.1351   28.4132    7.7631 O.2       11 UNK        -0.4999 
     69 C69        34.0666   27.2994    5.1640 C.3       12 UNK        -0.0954 
     70 S70        34.3062   26.3531    3.6206 S.3       12 UNK        -0.2268 
     71 C71        34.0602   24.6439    4.1904 C.3       12 UNK         0.0203 
     72 H72        28.9371   19.7821   -3.7734 H         1 UNK         0.0888 
     73 H73        30.4386   19.0209   -3.2466 H         1 UNK         0.0888 
     74 H74        28.9207   18.6324   -2.4350 H         1 UNK         0.0888 
     75 H75        28.7799   21.9289   -3.0859 H         1 UNK         0.3017 
     76 H76        30.4375   22.9750   -1.0182 H         1 UNK         0.0873 
     77 H77        27.4286   23.3561   -0.5216 H         1 UNK         0.0745 
     78 H78        28.2439   21.9982    0.1847 H         1 UNK         0.0745 
     79 H79        29.0572   22.0777    2.5478 H         1 UNK         0.0705 
     80 H80        30.5048   22.2030    1.5772 H         1 UNK         0.0705 
     81 H81        32.4064   23.5914    2.3030 H         1 UNK         0.1334 
     82 H82        32.4380   24.9363    6.3762 H         1 UNK         0.1417 
     83 H83        28.8383   23.3505    4.6655 H         1 UNK         0.1562 
     84 H84        30.5341   24.2220    7.8077 H         1 UNK         0.0748 
     85 H85        29.0334   23.6762    7.1130 H         1 UNK         0.0748 
     86 H86        26.8682   26.4244    6.5868 H         1 UNK         0.0940 
     87 H87        27.4932   25.0019    5.8201 H         1 UNK         0.0940 
     88 H88        28.8985   26.5675    4.2949 H         1 UNK         0.0703 
     89 H89        26.2897   25.6832    3.9890 H         1 UNK         0.3081 
     90 H90        25.6627   25.2450    1.7065 H         1 UNK         0.0719 
     91 H91        24.3260   28.0196    1.9442 H         1 UNK         0.0809 
     92 H92        23.4992   26.5289    1.5029 H         1 UNK         0.0809 
     93 H93        24.1483   26.7201    3.1165 H         1 UNK         0.0809 
     94 H94        26.6830   27.3209    0.0303 H         1 UNK         0.2990 
     95 H95        25.1337   26.0108   -2.9668 H         1 UNK         0.0690 
     96 H96        25.3394   28.4069   -3.5288 H         1 UNK         0.0788 
     97 H97        25.6029   28.8159   -1.8366 H         1 UNK         0.0788 
     98 H98        24.0642   28.1493   -2.3491 H         1 UNK         0.0788 
     99 H99        27.2904   25.7225   -3.1838 H         1 UNK         0.2993 
    100 H100       29.4911   26.5272   -3.6011 H         1 UNK         0.0949 
    101 H101       30.4891   28.5843   -2.6071 H         1 UNK         0.0767 
    102 H102       30.7492   27.7485   -1.0856 H         1 UNK         0.0767 
    103 H103       31.6119   27.2352   -2.5330 H         1 UNK         0.0767 
    104 H104       30.2176   25.3538   -0.9908 H         1 UNK         0.3013 
    105 H105       25.9035   28.4200    4.8025 H         1 UNK         0.3121 
    106 H106       27.1388   30.7493    5.9541 H         1 UNK         0.0774 
    107 H107       24.9012   31.7770    5.5441 H         1 UNK         0.0815 
    108 H108       24.4194   30.3896    4.5788 H         1 UNK         0.0815 
    109 H109       24.7399   30.2037    6.3045 H         1 UNK         0.0815 
    110 H110       26.7110   29.6592    2.6358 H         1 UNK         0.2987 
    111 H111       27.2706   32.3289    1.4746 H         1 UNK         0.0949 
    112 H112       26.5766   29.6234    0.2328 H         1 UNK         0.0806 
    113 H113       25.5245   31.0279    0.3613 H         1 UNK         0.0806 
    114 H114       26.9302   31.0747   -0.6937 H         1 UNK         0.0806 
    115 H115       28.7625   29.1509    1.9887 H         1 UNK         0.3010 
    116 H116       31.2269   29.6318    0.6182 H         1 UNK         0.0829 
    117 H117       30.2518   27.3571    1.1619 H         1 UNK         0.0813 
    118 H118       31.9067   27.5318    1.7341 H         1 UNK         0.0813 
    119 H119       30.5685   27.6483    2.8653 H         1 UNK         0.0813 
    120 H120       31.1355   31.9394    1.7506 H         1 UNK         0.3038 
    121 H121       31.8680   32.4061    4.3677 H         1 UNK         0.0769 
    122 H122       32.5772   34.0755    1.8923 H         1 UNK         0.0811 
    123 H123       32.5830   34.6660    3.5498 H         1 UNK         0.0811 
    124 H124       31.0728   34.1613    2.8105 H         1 UNK         0.0811 
    125 H125       34.0384   31.4046    1.8122 H         1 UNK         0.3204 
    126 H126       36.5494   32.0282    2.9924 H         1 UNK         0.0748 
    127 H127       36.2854   31.3940    0.6020 H         1 UNK         0.0771 
    128 H128       37.4074   30.3028    1.3964 H         1 UNK         0.0771 
    129 H129       35.7649   29.7721    1.0649 H         1 UNK         0.0771 
    130 H130       34.2033   29.5233    3.8099 H         1 UNK         0.2980 
    131 H131       36.1058   27.9219    5.3497 H         1 UNK         0.0545 
    132 H132       34.7211   30.8073    7.7673 H         1 UNK         0.3459 
    133 H133       34.6892   30.9826    6.0293 H         1 UNK         0.3459 
    134 H134       33.0587   27.7170    5.1624 H         1 UNK         0.0616 
    135 H135       34.1058   26.6101    6.0082 H         1 UNK         0.0616 
    136 H136       34.5283   23.9701    3.4714 H         1 UNK         0.0634 
    137 H137       34.5817   24.4827    5.1350 H         1 UNK         0.0634 
@<TRIPOS>BOND
     1    1    2 1    
     2    1   72 1    
     3    1   73 1    
     4    1   74 1    
     5    2    3 2    
     6    2    4 am   BACKBONE|DICT|INTERRES
     7    4    5 1    
     8    4   75 1    
     9    5    6 1    
    10    5   35 1    
    11    5   76 1    
    12    6    7 1    
    13    6   77 1    
    14    6   78 1    
    15    7    8 1    
    16    8    9 1    
    17    8   79 1    
    18    8   80 1    
    19    9   10 ar   
    20    9   14 ar   
    21   10   11 ar   
    22   10   81 1    
    23   11   12 ar   
    24   11   71 1    
    25   12   13 ar   
    26   12   82 1    
    27   13   14 ar   
    28   13   15 1    
    29   14   83 1    
    30   15   16 1    
    31   15   84 1    
    32   15   85 1    
    33   16   17 1    
    34   17   18 1    
    35   17   86 1    
    36   17   87 1    
    37   18   19 1    
    38   18   37 1    
    39   18   88 1    
    40   19   20 am   BACKBONE|DICT|INTERRES
    41   19   89 1    
    42   20   21 2    
    43   20   22 1    
    44   22   23 1    
    45   22   24 1    
    46   22   90 1    
    47   23   91 1    
    48   23   92 1    
    49   23   93 1    
    50   24   25 am   BACKBONE|DICT|INTERRES
    51   24   94 1    
    52   25   26 2    
    53   25   27 1    
    54   27   28 1    
    55   27   29 1    
    56   27   95 1    
    57   28   96 1    
    58   28   97 1    
    59   28   98 1    
    60   29   30 am   BACKBONE|DICT|INTERRES
    61   29   99 1    
    62   30   31 2    
    63   30   32 1    
    64   32   33 1    
    65   32   34 1    
    66   32  100 1    
    67   33  101 1    
    68   33  102 1    
    69   33  103 1    
    70   34   35 am   BACKBONE|DICT|INTERRES
    71   34  104 1    
    72   35   36 2    
    73   37   38 2    
    74   37   39 am   BACKBONE|DICT|INTERRES
    75   39   40 1    
    76   39  105 1    
    77   40   41 1    
    78   40   42 1    
    79   40  106 1    
    80   41  107 1    
    81   41  108 1    
    82   41  109 1    
    83   42   43 2    
    84   42   44 am   BACKBONE|DICT|INTERRES
    85   44   45 1    
    86   44  110 1    
    87   45   46 1    
    88   45   47 1    
    89   45  111 1    
    90   46  112 1    
    91   46  113 1    
    92   46  114 1    
    93   47   48 2    
    94   47   49 am   BACKBONE|DICT|INTERRES
    95   49   50 1    
    96   49  115 1    
    97   50   51 1    
    98   50   52 1    
    99   50  116 1    
   100   51  117 1    
   101   51  118 1    
   102   51  119 1    
   103   52   53 2    
   104   52   54 am   BACKBONE|DICT|INTERRES
   105   54   55 1    
   106   54  120 1    
   107   55   56 1    
   108   55   57 1    
   109   55  121 1    
   110   56  122 1    
   111   56  123 1    
   112   56  124 1    
   113   57   58 2    
   114   57   59 am   BACKBONE|DICT|INTERRES
   115   59   60 1    
   116   59  125 1    
   117   60   61 1    
   118   60   62 1    
   119   60  126 1    
   120   61  127 1    
   121   61  128 1    
   122   61  129 1    
   123   62   63 2    
   124   62   64 am   BACKBONE|DICT|INTERRES
   125   64   65 1    
   126   64  130 1    
   127   65   66 1    
   128   65   69 1    
   129   65  131 1    
   130   66   67 am   BACKBONE|DICT|INTERRES
   131   66   68 2    
   132   67  132 1    
   133   67  133 1    
   134   69   70 1    
   135   69  134 1    
   136   69  135 1    
   137   70   71 1    
   138   71  136 1    
   139   71  137 1    
@<TRIPOS>SUBSTRUCTURE
     1 UNK         1 GROUP             0       ****    0 ROOT    
